ZINC000012993008
     RDKit          3D

 49 52  0  0  1  0  0  0  0  0999 V2000
    0.0021   -0.0041    0.0020 O   0  0  0  0  0  0  0  0  0  0  0  0
   -0.0172    1.4168    0.0098 S   0  0  1  0  0  0  0  0  0  0  0  0
    1.1617    2.2101    0.0028 O   0  0  0  0  0  0  0  0  0  0  0  0
   -0.9567    1.9094   -1.3970 C   0  0  0  0  0  0  0  0  0  0  0  0
   -1.8848    1.0442   -1.9458 C   0  0  0  0  0  0  0  0  0  0  0  0
   -2.6219    1.4307   -3.0496 C   0  0  0  0  0  0  0  0  0  0  0  0
   -2.4313    2.6825   -3.6042 C   0  0  0  0  0  0  0  0  0  0  0  0
   -3.2345    3.1036   -4.8078 C   0  0  1  0  0  0  0  0  0  0  0  0
   -4.4138    3.7273   -4.3864 F   0  0  0  0  0  0  0  0  0  0  0  0
   -2.4843    3.9973   -5.5796 F   0  0  0  0  0  0  0  0  0  0  0  0
   -3.5510    1.9771   -5.5746 F   0  0  0  0  0  0  0  0  0  0  0  0
   -1.5042    3.5481   -3.0546 C   0  0  0  0  0  0  0  0  0  0  0  0
   -0.7699    3.1631   -1.9485 C   0  0  0  0  0  0  0  0  0  0  0  0
   -0.8748    1.8654    1.3536 N   0  0  0  0  0  0  0  0  0  0  0  0
   -0.7685    3.1619    2.0474 C   0  0  1  0  0  0  0  0  0  0  0  0
   -2.1234    3.3324    2.7789 C   0  0  1  0  0  0  0  0  0  0  0  0
   -2.4234    1.8761    3.2223 C   0  0  1  0  0  0  0  0  0  0  0  0
   -1.8728    1.0392    2.0485 C   0  0  2  0  0  0  0  0  0  0  0  0
   -2.6829    0.7771    1.3680 H   0  0  0  0  0  0  0  0  0  0  0  0
   -1.2197   -0.2131    2.5739 C   0  0  0  0  0  0  0  0  0  0  0  0
    0.0491   -0.1519    3.1185 C   0  0  0  0  0  0  0  0  0  0  0  0
    0.6553   -1.2977    3.6029 C   0  0  0  0  0  0  0  0  0  0  0  0
   -0.0145   -2.5074    3.5398 C   0  0  0  0  0  0  0  0  0  0  0  0
    0.5722   -3.6452    4.0125 O   0  0  0  0  0  0  0  0  0  0  0  0
   -0.0165   -4.2106    5.1856 C   0  0  1  0  0  0  0  0  0  0  0  0
   -1.1941   -5.1015    4.8223 C   0  0  1  0  0  0  0  0  0  0  0  0
   -2.3375   -4.3216    4.1926 C   0  0  1  0  0  0  0  0  0  0  0  0
   -1.9413   -3.7661    2.9370 O   0  0  0  0  0  0  0  0  0  0  0  0
   -1.2891   -2.5687    2.9938 C   0  0  0  0  0  0  0  0  0  0  0  0
   -1.8946   -1.4199    2.5147 C   0  0  0  0  0  0  0  0  0  0  0  0
   -2.0336    0.0662   -1.5125 H   0  0  0  0  0  0  0  0  0  0  0  0
   -3.3464    0.7545   -3.4788 H   0  0  0  0  0  0  0  0  0  0  0  0
   -1.3556    4.5263   -3.4877 H   0  0  0  0  0  0  0  0  0  0  0  0
   -0.0456    3.8394   -1.5191 H   0  0  0  0  0  0  0  0  0  0  0  0
    0.0507    3.1415    2.7661 H   0  0  0  0  0  0  0  0  0  0  0  0
   -0.6224    3.9668    1.3271 H   0  0  0  0  0  0  0  0  0  0  0  0
   -2.0213    3.9904    3.6418 H   0  0  0  0  0  0  0  0  0  0  0  0
   -2.8914    3.6996    2.0981 H   0  0  0  0  0  0  0  0  0  0  0  0
   -1.8997    1.6393    4.1485 H   0  0  0  0  0  0  0  0  0  0  0  0
   -3.4964    1.7203    3.3340 H   0  0  0  0  0  0  0  0  0  0  0  0
    0.5693    0.7934    3.1660 H   0  0  0  0  0  0  0  0  0  0  0  0
    1.6470   -1.2484    4.0279 H   0  0  0  0  0  0  0  0  0  0  0  0
    0.7317   -4.8023    5.7130 H   0  0  0  0  0  0  0  0  0  0  0  0
   -0.3618   -3.4074    5.8365 H   0  0  0  0  0  0  0  0  0  0  0  0
   -0.8569   -5.8632    4.1193 H   0  0  0  0  0  0  0  0  0  0  0  0
   -1.5568   -5.5928    5.7252 H   0  0  0  0  0  0  0  0  0  0  0  0
   -3.1850   -4.9895    4.0380 H   0  0  0  0  0  0  0  0  0  0  0  0
   -2.6346   -3.5157    4.8637 H   0  0  0  0  0  0  0  0  0  0  0  0
   -2.8879   -1.4657    2.0933 H   0  0  0  0  0  0  0  0  0  0  0  0
  1  2  2  0
  2  3  2  0
  2  4  1  0
  2 14  1  1
  4 13  2  0
  4  5  1  0
  5  6  2  0
  5 31  1  0
  6  7  1  0
  6 32  1  0
  7  8  1  0
  7 12  2  0
  8  9  1  1
  8 10  1  0
  8 11  1  0
 12 13  1  0
 12 33  1  0
 13 34  1  0
 14 18  1  0
 14 15  1  0
 15 16  1  0
 15 35  1  1
 15 36  1  0
 16 17  1  0
 16 37  1  1
 16 38  1  0
 17 18  1  0
 17 39  1  1
 17 40  1  0
 18 19  1  6
 18 20  1  0
 20 30  2  0
 20 21  1  0
 21 22  2  0
 21 41  1  0
 22 23  1  0
 22 42  1  0
 23 29  2  0
 23 24  1  0
 24 25  1  0
 25 26  1  0
 25 43  1  1
 25 44  1  0
 26 27  1  0
 26 45  1  6
 26 46  1  0
 27 28  1  0
 27 47  1  6
 27 48  1  0
 28 29  1  0
 29 30  1  0
 30 49  1  0
M  END
$$$$
