ZINC000012747675
     RDKit          3D

 66 70  0  0  1  0  0  0  0  0999 V2000
    0.5365    1.3925    0.3260 C   0  0  1  0  0  0  0  0  0  0  0  0
    0.0021   -0.0041    0.0020 C   0  0  1  0  0  0  0  0  0  0  0  0
   -1.0737    0.0484   -0.1656 H   0  0  0  0  0  0  0  0  0  0  0  0
    0.6791   -0.5255   -1.2393 C   0  0  0  0  0  0  0  0  0  0  0  0
    1.6970   -1.1782   -1.1462 O   0  0  0  0  0  0  0  0  0  0  0  0
    0.1533   -0.2664   -2.4530 N   0  0  0  0  0  0  0  0  0  0  0  0
    0.8115   -0.7733   -3.6597 C   0  0  1  0  0  0  0  0  0  0  0  0
    0.8748   -2.3009   -3.6027 C   0  0  1  0  0  0  0  0  0  0  0  0
    1.5621   -2.8303   -4.8629 C   0  0  2  0  0  0  0  0  0  0  0  0
    2.9809   -2.2638   -4.9462 C   0  0  1  0  0  0  0  0  0  0  0  0
    2.9177   -0.7362   -5.0032 C   0  0  1  0  0  0  0  0  0  0  0  0
    2.1229   -0.3044   -6.2372 C   0  0  1  0  0  0  0  0  0  0  0  0
    0.7041   -0.8708   -6.1539 C   0  0  1  0  0  0  0  0  0  0  0  0
    0.7673   -2.3984   -6.0969 C   0  0  1  0  0  0  0  0  0  0  0  0
    0.0167   -0.3415   -4.8937 C   0  0  1  0  0  0  0  0  0  0  0  0
    2.2303   -0.2068   -3.7429 C   0  0  1  0  0  0  0  0  0  0  0  0
    0.2789   -0.9074    1.1269 N   0  0  0  0  0  0  0  0  0  0  0  0
    1.6755   -0.7883    1.5664 C   0  0  1  0  0  0  0  0  0  0  0  0
    1.8759   -1.6052    2.8473 C   0  0  1  0  0  0  0  0  0  0  0  0
    1.4166   -2.9806    2.6009 N   0  0  0  0  0  0  0  0  0  0  0  0
    2.3841   -4.2764    2.9571 S   0  0  1  0  0  0  0  0  0  0  0  0
    1.9379   -5.3478    2.1371 O   0  0  0  0  0  0  0  0  0  0  0  0
    3.7208   -3.7942    2.9465 O   0  0  0  0  0  0  0  0  0  0  0  0
    2.0374   -4.7448    4.6199 C   0  0  0  0  0  0  0  0  0  0  0  0
    2.7514   -4.1802    5.6602 C   0  0  0  0  0  0  0  0  0  0  0  0
    2.4794   -4.5477    6.9648 C   0  0  0  0  0  0  0  0  0  0  0  0
    1.4930   -5.4794    7.2291 C   0  0  0  0  0  0  0  0  0  0  0  0
    1.1968   -5.8803    8.6512 C   0  0  1  0  0  0  0  0  0  0  0  0
    0.2138   -5.0360    9.1786 F   0  0  0  0  0  0  0  0  0  0  0  0
    0.7392   -7.2021    8.6774 F   0  0  0  0  0  0  0  0  0  0  0  0
    2.3623   -5.7750    9.4178 F   0  0  0  0  0  0  0  0  0  0  0  0
    0.7780   -6.0430    6.1888 C   0  0  0  0  0  0  0  0  0  0  0  0
    1.0475   -5.6727    4.8845 C   0  0  0  0  0  0  0  0  0  0  0  0
    0.0750   -3.1745    2.0302 C   0  0  1  0  0  0  0  0  0  0  0  0
   -0.0545   -2.2957    0.7815 C   0  0  1  0  0  0  0  0  0  0  0  0
    1.6122    1.3400    0.4937 H   0  0  0  0  0  0  0  0  0  0  0  0
    0.3311    2.0628   -0.5086 H   0  0  0  0  0  0  0  0  0  0  0  0
    0.0468    1.7696    1.2239 H   0  0  0  0  0  0  0  0  0  0  0  0
   -0.6608    0.2556   -2.5274 H   0  0  0  0  0  0  0  0  0  0  0  0
    1.4410   -2.6086   -2.7235 H   0  0  0  0  0  0  0  0  0  0  0  0
   -0.1361   -2.7045   -3.5433 H   0  0  0  0  0  0  0  0  0  0  0  0
    1.6072   -3.9186   -4.8223 H   0  0  0  0  0  0  0  0  0  0  0  0
    3.5471   -2.5715   -4.0670 H   0  0  0  0  0  0  0  0  0  0  0  0
    3.4706   -2.6410   -5.8440 H   0  0  0  0  0  0  0  0  0  0  0  0
    3.9285   -0.3327   -5.0625 H   0  0  0  0  0  0  0  0  0  0  0  0
    2.0778    0.7839   -6.2778 H   0  0  0  0  0  0  0  0  0  0  0  0
    2.6126   -0.6815   -7.1350 H   0  0  0  0  0  0  0  0  0  0  0  0
    0.1378   -0.5632   -7.0331 H   0  0  0  0  0  0  0  0  0  0  0  0
    1.2570   -2.7756   -6.9948 H   0  0  0  0  0  0  0  0  0  0  0  0
   -0.2435   -2.8020   -6.0376 H   0  0  0  0  0  0  0  0  0  0  0  0
   -0.9941   -0.7450   -4.8344 H   0  0  0  0  0  0  0  0  0  0  0  0
   -0.0284    0.7468   -4.9343 H   0  0  0  0  0  0  0  0  0  0  0  0
    2.1853    0.8815   -3.7835 H   0  0  0  0  0  0  0  0  0  0  0  0
    2.7965   -0.5145   -2.8638 H   0  0  0  0  0  0  0  0  0  0  0  0
    2.3359   -1.1671    0.7863 H   0  0  0  0  0  0  0  0  0  0  0  0
    1.9070    0.2586    1.7627 H   0  0  0  0  0  0  0  0  0  0  0  0
    2.9327   -1.6144    3.1142 H   0  0  0  0  0  0  0  0  0  0  0  0
    1.2946   -1.1646    3.6573 H   0  0  0  0  0  0  0  0  0  0  0  0
    3.5221   -3.4523    5.4538 H   0  0  0  0  0  0  0  0  0  0  0  0
    3.0377   -4.1071    7.7775 H   0  0  0  0  0  0  0  0  0  0  0  0
    0.0071   -6.7706    6.3953 H   0  0  0  0  0  0  0  0  0  0  0  0
    0.4889   -6.1130    4.0718 H   0  0  0  0  0  0  0  0  0  0  0  0
   -0.0589   -4.2211    1.7569 H   0  0  0  0  0  0  0  0  0  0  0  0
   -0.6795   -2.8847    2.7617 H   0  0  0  0  0  0  0  0  0  0  0  0
   -1.0777   -2.3421    0.4086 H   0  0  0  0  0  0  0  0  0  0  0  0
    0.6299   -2.6536    0.0123 H   0  0  0  0  0  0  0  0  0  0  0  0
  1  2  1  0
  1 36  1  1
  1 37  1  0
  1 38  1  0
  2  3  1  6
  2  4  1  0
  2 17  1  0
  4  5  2  0
  4  6  1  0
  6 39  1  0
  7  6  1  1
  7 15  1  0
  7 16  1  0
  7  8  1  0
  8  9  1  0
  8 40  1  1
  8 41  1  0
  9 14  1  0
  9 10  1  0
  9 42  1  1
 10 11  1  0
 10 43  1  1
 10 44  1  0
 11 12  1  0
 11 16  1  0
 11 45  1  6
 12 13  1  0
 12 46  1  6
 12 47  1  0
 13 14  1  0
 13 15  1  0
 13 48  1  6
 14 49  1  6
 14 50  1  0
 15 51  1  1
 15 52  1  0
 16 53  1  6
 16 54  1  0
 17 35  1  0
 17 18  1  0
 18 19  1  0
 18 55  1  6
 18 56  1  0
 19 20  1  0
 19 57  1  1
 19 58  1  0
 21 20  1  6
 20 34  1  0
 21 22  2  0
 21 23  2  0
 21 24  1  0
 24 33  2  0
 24 25  1  0
 25 26  2  0
 25 59  1  0
 26 27  1  0
 26 60  1  0
 27 28  1  0
 27 32  2  0
 28 29  1  1
 28 30  1  0
 28 31  1  0
 32 33  1  0
 32 61  1  0
 33 62  1  0
 34 35  1  0
 34 63  1  6
 34 64  1  0
 35 65  1  6
 35 66  1  0
M  END
$$$$
