ZINC000009314506
     RDKit          3D

 66 69  0  0  1  0  0  0  0  0999 V2000
   -0.0187    1.5258    0.0104 C   0  0  1  0  0  0  0  0  0  0  0  0
    0.0021   -0.0041    0.0020 C   0  0  1  0  0  0  0  0  0  0  0  0
    0.7106   -0.4894    1.1889 N   0  0  0  0  0  0  0  0  0  0  0  0
   -0.0062   -0.6460    2.4569 C   0  0  1  0  0  0  0  0  0  0  0  0
   -0.6935   -2.0126    2.4888 C   0  0  1  0  0  0  0  0  0  0  0  0
    2.3218   -0.8609    1.0971 S   0  0  1  0  0  0  0  0  0  0  0  0
    2.5823   -1.7795    2.1496 O   0  0  0  0  0  0  0  0  0  0  0  0
    2.5905   -1.1471   -0.2686 O   0  0  0  0  0  0  0  0  0  0  0  0
    3.2182    0.6060    1.4837 C   0  0  0  0  0  0  0  0  0  0  0  0
    3.5678    1.4858    0.4768 C   0  0  0  0  0  0  0  0  0  0  0  0
    4.2710    2.6392    0.7742 C   0  0  0  0  0  0  0  0  0  0  0  0
    4.6269    2.9153    2.0835 C   0  0  0  0  0  0  0  0  0  0  0  0
    5.3180    4.0493    2.3775 O   0  0  0  0  0  0  0  0  0  0  0  0
    5.6443    4.9116    1.2857 C   0  0  1  0  0  0  0  0  0  0  0  0
    4.2748    2.0288    3.0995 C   0  0  0  0  0  0  0  0  0  0  0  0
    4.6314    2.3030    4.4248 N   0  0  0  0  0  0  0  0  0  0  0  0
    4.2602    1.3696    5.4913 C   0  0  1  0  0  0  0  0  0  0  0  0
    4.7587    1.8936    6.8134 C   0  0  0  0  0  0  0  0  0  0  0  0
    5.3644    2.9433    6.8602 O   0  0  0  0  0  0  0  0  0  0  0  0
    4.5315    1.1957    7.9438 N   0  0  0  0  0  0  0  0  0  0  0  0
    5.0162    1.7051    9.2291 C   0  0  1  0  0  0  0  0  0  0  0  0
    4.3871    3.0720    9.5058 C   0  0  1  0  0  0  0  0  0  0  0  0
    4.8932    3.6040   10.8481 C   0  0  2  0  0  0  0  0  0  0  0  0
    6.4161    3.7438   10.7998 C   0  0  1  0  0  0  0  0  0  0  0  0
    7.0451    2.3768   10.5231 C   0  0  1  0  0  0  0  0  0  0  0  0
    6.6575    1.4021   11.6368 C   0  0  1  0  0  0  0  0  0  0  0  0
    5.1347    1.2623   11.6851 C   0  0  1  0  0  0  0  0  0  0  0  0
    4.5056    2.6293   11.9619 C   0  0  1  0  0  0  0  0  0  0  0  0
    4.6285    0.7303   10.3428 C   0  0  1  0  0  0  0  0  0  0  0  0
    6.5390    1.8448    9.1808 C   0  0  1  0  0  0  0  0  0  0  0  0
    3.5651    0.8769    2.7944 C   0  0  0  0  0  0  0  0  0  0  0  0
    1.0039    1.9031    0.0027 H   0  0  0  0  0  0  0  0  0  0  0  0
   -0.5459    1.8868   -0.8726 H   0  0  0  0  0  0  0  0  0  0  0  0
   -0.5289    1.8773    0.9072 H   0  0  0  0  0  0  0  0  0  0  0  0
   -1.0205   -0.3814    0.0098 H   0  0  0  0  0  0  0  0  0  0  0  0
    0.5123   -0.3556   -0.8948 H   0  0  0  0  0  0  0  0  0  0  0  0
    0.6997   -0.5749    3.2845 H   0  0  0  0  0  0  0  0  0  0  0  0
   -0.7557    0.1399    2.5501 H   0  0  0  0  0  0  0  0  0  0  0  0
   -1.2268   -2.1291    3.4323 H   0  0  0  0  0  0  0  0  0  0  0  0
   -1.3993   -2.0837    1.6613 H   0  0  0  0  0  0  0  0  0  0  0  0
    0.0560   -2.7985    2.3957 H   0  0  0  0  0  0  0  0  0  0  0  0
    3.2914    1.2720   -0.5452 H   0  0  0  0  0  0  0  0  0  0  0  0
    4.5430    3.3244   -0.0151 H   0  0  0  0  0  0  0  0  0  0  0  0
    6.2605    4.3709    0.5673 H   0  0  0  0  0  0  0  0  0  0  0  0
    4.7274    5.2451    0.7996 H   0  0  0  0  0  0  0  0  0  0  0  0
    6.1937    5.7764    1.6574 H   0  0  0  0  0  0  0  0  0  0  0  0
    5.1242    3.1110    4.6372 H   0  0  0  0  0  0  0  0  0  0  0  0
    3.1753    1.2700    5.5257 H   0  0  0  0  0  0  0  0  0  0  0  0
    4.7084    0.3958    5.2941 H   0  0  0  0  0  0  0  0  0  0  0  0
    4.0471    0.3562    7.9064 H   0  0  0  0  0  0  0  0  0  0  0  0
    4.6632    3.7664    8.7124 H   0  0  0  0  0  0  0  0  0  0  0  0
    3.3022    2.9725    9.5402 H   0  0  0  0  0  0  0  0  0  0  0  0
    4.4450    4.5778   11.0453 H   0  0  0  0  0  0  0  0  0  0  0  0
    6.6922    4.4382   10.0064 H   0  0  0  0  0  0  0  0  0  0  0  0
    6.7766    4.1227   11.7561 H   0  0  0  0  0  0  0  0  0  0  0  0
    8.1300    2.4764   10.4887 H   0  0  0  0  0  0  0  0  0  0  0  0
    7.1057    0.4282   11.4397 H   0  0  0  0  0  0  0  0  0  0  0  0
    7.0181    1.7811   12.5931 H   0  0  0  0  0  0  0  0  0  0  0  0
    4.8585    0.5679   12.4786 H   0  0  0  0  0  0  0  0  0  0  0  0
    4.8662    3.0082   12.9182 H   0  0  0  0  0  0  0  0  0  0  0  0
    3.4207    2.5297   11.9963 H   0  0  0  0  0  0  0  0  0  0  0  0
    3.5436    0.6308   10.3773 H   0  0  0  0  0  0  0  0  0  0  0  0
    5.0767   -0.2435   10.1457 H   0  0  0  0  0  0  0  0  0  0  0  0
    6.9872    0.8710    8.9836 H   0  0  0  0  0  0  0  0  0  0  0  0
    6.8151    2.5393    8.3873 H   0  0  0  0  0  0  0  0  0  0  0  0
    3.2903    0.1880    3.5794 H   0  0  0  0  0  0  0  0  0  0  0  0
  1  2  1  0
  1 32  1  6
  1 33  1  0
  1 34  1  0
  2  3  1  0
  2 35  1  1
  2 36  1  0
  3  4  1  0
  6  3  1  6
  4  5  1  0
  4 37  1  1
  4 38  1  0
  5 39  1  1
  5 40  1  0
  5 41  1  0
  6  7  2  0
  6  8  2  0
  6  9  1  0
  9 31  2  0
  9 10  1  0
 10 11  2  0
 10 42  1  0
 11 12  1  0
 11 43  1  0
 12 13  1  0
 12 15  2  0
 13 14  1  0
 14 44  1  6
 14 45  1  0
 14 46  1  0
 15 16  1  0
 15 31  1  0
 16 17  1  0
 16 47  1  0
 17 18  1  0
 17 48  1  1
 17 49  1  0
 18 19  2  0
 18 20  1  0
 20 50  1  0
 21 20  1  6
 21 29  1  0
 21 30  1  0
 21 22  1  0
 22 23  1  0
 22 51  1  6
 22 52  1  0
 23 28  1  0
 23 24  1  0
 23 53  1  1
 24 25  1  0
 24 54  1  6
 24 55  1  0
 25 26  1  0
 25 30  1  0
 25 56  1  6
 26 27  1  0
 26 57  1  6
 26 58  1  0
 27 28  1  0
 27 29  1  0
 27 59  1  1
 28 60  1  1
 28 61  1  0
 29 62  1  1
 29 63  1  0
 30 64  1  6
 30 65  1  0
 31 66  1  0
M  END
$$$$
