ZINC000408610988
     RDKit          3D

 62 64  0  0  1  0  0  0  0  0999 V2000
   -0.0187    1.5258    0.0104 C   0  0  1  0  0  0  0  0  0  0  0  0
    0.0021   -0.0041    0.0020 C   0  0  1  0  0  0  0  0  0  0  0  0
   -1.0205   -0.3814    0.0098 H   0  0  0  0  0  0  0  0  0  0  0  0
    0.7182   -0.4975   -1.2568 C   0  0  1  0  0  0  0  0  0  0  0  0
    0.6303   -2.0233   -1.3286 C   0  0  1  0  0  0  0  0  0  0  0  0
    1.3357   -2.5093   -2.5685 C   0  0  0  0  0  0  0  0  0  0  0  0
    0.6379   -2.6389   -3.7547 C   0  0  0  0  0  0  0  0  0  0  0  0
    1.2849   -3.0847   -4.8920 C   0  0  0  0  0  0  0  0  0  0  0  0
    2.6299   -3.4004   -4.8432 C   0  0  0  0  0  0  0  0  0  0  0  0
    3.3279   -3.2700   -3.6572 C   0  0  0  0  0  0  0  0  0  0  0  0
    2.6818   -2.8201   -2.5209 C   0  0  0  0  0  0  0  0  0  0  0  0
    0.7106   -0.4894    1.1889 N   0  0  0  0  0  0  0  0  0  0  0  0
    0.0512   -0.6335    2.3554 C   0  0  0  0  0  0  0  0  0  0  0  0
   -1.1288   -0.3614    2.4226 O   0  0  0  0  0  0  0  0  0  0  0  0
    0.7801   -1.1327    3.5763 C   0  0  1  0  0  0  0  0  0  0  0  0
   -0.1498   -1.2008    4.7064 N   0  0  0  0  0  0  0  0  0  0  0  0
   -0.9883   -2.3873    4.8945 C   0  0  1  0  0  0  0  0  0  0  0  0
   -0.2029   -3.4497    5.6662 C   0  0  1  0  0  0  0  0  0  0  0  0
   -1.0655   -4.6702    5.8597 C   0  0  0  0  0  0  0  0  0  0  0  0
   -1.8707   -4.7771    6.9782 C   0  0  0  0  0  0  0  0  0  0  0  0
   -2.6619   -5.8966    7.1557 C   0  0  0  0  0  0  0  0  0  0  0  0
   -2.6482   -6.9090    6.2145 C   0  0  0  0  0  0  0  0  0  0  0  0
   -1.8437   -6.8016    5.0956 C   0  0  0  0  0  0  0  0  0  0  0  0
   -1.0557   -5.6802    4.9159 C   0  0  0  0  0  0  0  0  0  0  0  0
   -0.2530    0.0634    5.7711 S   0  0  1  0  0  0  0  0  0  0  0  0
   -0.6138   -0.4973    7.0259 O   0  0  0  0  0  0  0  0  0  0  0  0
    0.9161    0.8475    5.5775 O   0  0  0  0  0  0  0  0  0  0  0  0
   -1.6123    1.0631    5.2635 C   0  0  0  0  0  0  0  0  0  0  0  0
   -1.4134    2.0957    4.3663 C   0  0  0  0  0  0  0  0  0  0  0  0
   -2.4793    2.8803    3.9677 C   0  0  0  0  0  0  0  0  0  0  0  0
   -3.7454    2.6319    4.4670 C   0  0  0  0  0  0  0  0  0  0  0  0
   -5.0848    3.6164    3.9665 Cl  0  0  0  0  0  0  0  0  0  0  0  0
   -3.9439    1.5982    5.3650 C   0  0  0  0  0  0  0  0  0  0  0  0
   -2.8782    0.8108    5.7584 C   0  0  0  0  0  0  0  0  0  0  0  0
    1.0039    1.9031    0.0027 H   0  0  0  0  0  0  0  0  0  0  0  0
   -0.5459    1.8868   -0.8726 H   0  0  0  0  0  0  0  0  0  0  0  0
   -0.5289    1.8773    0.9072 H   0  0  0  0  0  0  0  0  0  0  0  0
    0.2444   -0.0644   -2.1377 H   0  0  0  0  0  0  0  0  0  0  0  0
    1.7648   -0.1951   -1.2215 H   0  0  0  0  0  0  0  0  0  0  0  0
    1.1041   -2.4564   -0.4477 H   0  0  0  0  0  0  0  0  0  0  0  0
   -0.4163   -2.3257   -1.3639 H   0  0  0  0  0  0  0  0  0  0  0  0
   -0.4128   -2.3922   -3.7929 H   0  0  0  0  0  0  0  0  0  0  0  0
    0.7396   -3.1866   -5.8187 H   0  0  0  0  0  0  0  0  0  0  0  0
    3.1352   -3.7494   -5.7316 H   0  0  0  0  0  0  0  0  0  0  0  0
    4.3785   -3.5170   -3.6190 H   0  0  0  0  0  0  0  0  0  0  0  0
    3.2272   -2.7181   -1.5943 H   0  0  0  0  0  0  0  0  0  0  0  0
    1.6544   -0.7070    1.1351 H   0  0  0  0  0  0  0  0  0  0  0  0
    1.1839   -2.1254    3.3778 H   0  0  0  0  0  0  0  0  0  0  0  0
    1.5952   -0.4503    3.8172 H   0  0  0  0  0  0  0  0  0  0  0  0
   -1.8814   -2.1155    5.4572 H   0  0  0  0  0  0  0  0  0  0  0  0
   -1.2786   -2.7849    3.9221 H   0  0  0  0  0  0  0  0  0  0  0  0
    0.6902   -3.7214    5.1034 H   0  0  0  0  0  0  0  0  0  0  0  0
    0.0874   -3.0520    6.6386 H   0  0  0  0  0  0  0  0  0  0  0  0
   -1.8815   -3.9862    7.7135 H   0  0  0  0  0  0  0  0  0  0  0  0
   -3.2905   -5.9805    8.0299 H   0  0  0  0  0  0  0  0  0  0  0  0
   -3.2659   -7.7840    6.3536 H   0  0  0  0  0  0  0  0  0  0  0  0
   -1.8327   -7.5927    4.3605 H   0  0  0  0  0  0  0  0  0  0  0  0
   -0.4271   -5.5963    4.0417 H   0  0  0  0  0  0  0  0  0  0  0  0
   -0.4249    2.2898    3.9769 H   0  0  0  0  0  0  0  0  0  0  0  0
   -2.3237    3.6872    3.2670 H   0  0  0  0  0  0  0  0  0  0  0  0
   -4.9320    1.4040    5.7553 H   0  0  0  0  0  0  0  0  0  0  0  0
   -3.0330    0.0037    6.4591 H   0  0  0  0  0  0  0  0  0  0  0  0
  1  2  1  0
  1 35  1  6
  1 36  1  0
  1 37  1  0
  2  3  1  1
  2  4  1  0
  2 12  1  0
  4  5  1  0
  4 38  1  6
  4 39  1  0
  5  6  1  0
  5 40  1  1
  5 41  1  0
  6 11  2  0
  6  7  1  0
  7  8  2  0
  7 42  1  0
  8  9  1  0
  8 43  1  0
  9 10  2  0
  9 44  1  0
 10 11  1  0
 10 45  1  0
 11 46  1  0
 12 13  1  0
 12 47  1  0
 13 14  2  0
 13 15  1  0
 15 16  1  0
 15 48  1  6
 15 49  1  0
 16 17  1  0
 25 16  1  6
 17 18  1  0
 17 50  1  1
 17 51  1  0
 18 19  1  0
 18 52  1  6
 18 53  1  0
 19 24  2  0
 19 20  1  0
 20 21  2  0
 20 54  1  0
 21 22  1  0
 21 55  1  0
 22 23  2  0
 22 56  1  0
 23 24  1  0
 23 57  1  0
 24 58  1  0
 25 26  2  0
 25 27  2  0
 25 28  1  0
 28 34  2  0
 28 29  1  0
 29 30  2  0
 29 59  1  0
 30 31  1  0
 30 60  1  0
 31 32  1  0
 31 33  2  0
 33 34  1  0
 33 61  1  0
 34 62  1  0
M  END
$$$$
