ZINC000096171016
     RDKit          3D

 36 37  0  0  1  0  0  0  0  0999 V2000
   -0.0187    1.5258    0.0104 C   0  0  1  0  0  0  0  0  0  0  0  0
    0.0021   -0.0041    0.0020 C   0  0  2  0  0  0  0  0  0  0  0  0
    0.5122   -0.3561   -0.8946 H   0  0  0  0  0  0  0  0  0  0  0  0
   -1.4334   -0.5345    0.0145 C   0  0  1  0  0  0  0  0  0  0  0  0
   -1.4142   -2.0642   -0.0270 C   0  0  1  0  0  0  0  0  0  0  0  0
   -0.6916   -2.5957    1.2148 C   0  0  1  0  0  0  0  0  0  0  0  0
    0.6392   -1.9773    1.2884 N   0  0  0  0  0  0  0  0  0  0  0  0
    1.9987   -2.9138    1.4188 S   0  0  1  0  0  0  0  0  0  0  0  0
    2.9971   -2.0919    2.0077 O   0  0  0  0  0  0  0  0  0  0  0  0
    1.5812   -4.1514    1.9786 O   0  0  0  0  0  0  0  0  0  0  0  0
    2.5472   -3.2678   -0.2178 C   0  0  0  0  0  0  0  0  0  0  0  0
    2.0798   -4.3897   -0.8756 C   0  0  0  0  0  0  0  0  0  0  0  0
    2.5102   -4.6673   -2.1608 C   0  0  0  0  0  0  0  0  0  0  0  0
    1.8705   -6.2020   -3.0616 Br  0  0  0  0  0  0  0  0  0  0  0  0
    3.4080   -3.8218   -2.7867 C   0  0  0  0  0  0  0  0  0  0  0  0
    3.8749   -2.6997   -2.1279 C   0  0  0  0  0  0  0  0  0  0  0  0
    4.8529   -1.7780   -2.8100 C   0  0  1  0  0  0  0  0  0  0  0  0
    5.1351   -2.2634   -4.0914 F   0  0  0  0  0  0  0  0  0  0  0  0
    4.2967   -0.4981   -2.9081 F   0  0  0  0  0  0  0  0  0  0  0  0
    6.0346   -1.7171   -2.0637 F   0  0  0  0  0  0  0  0  0  0  0  0
    3.4407   -2.4200   -0.8459 C   0  0  0  0  0  0  0  0  0  0  0  0
    0.7415   -0.5122    1.2437 C   0  0  1  0  0  0  0  0  0  0  0  0
    1.0039    1.9031    0.0027 H   0  0  0  0  0  0  0  0  0  0  0  0
   -0.5459    1.8868   -0.8726 H   0  0  0  0  0  0  0  0  0  0  0  0
   -0.5289    1.8773    0.9072 H   0  0  0  0  0  0  0  0  0  0  0  0
   -1.9355   -0.2021    0.9231 H   0  0  0  0  0  0  0  0  0  0  0  0
   -1.9686   -0.1542   -0.8556 H   0  0  0  0  0  0  0  0  0  0  0  0
   -2.4371   -2.4406   -0.0417 H   0  0  0  0  0  0  0  0  0  0  0  0
   -0.8906   -2.3972   -0.9231 H   0  0  0  0  0  0  0  0  0  0  0  0
   -1.2630   -2.3406    2.1072 H   0  0  0  0  0  0  0  0  0  0  0  0
   -0.5879   -3.6783    1.1418 H   0  0  0  0  0  0  0  0  0  0  0  0
    1.3790   -5.0499   -0.3863 H   0  0  0  0  0  0  0  0  0  0  0  0
    3.7445   -4.0383   -3.7898 H   0  0  0  0  0  0  0  0  0  0  0  0
    3.8054   -1.5431   -0.3317 H   0  0  0  0  0  0  0  0  0  0  0  0
    1.7904   -0.2207    1.1903 H   0  0  0  0  0  0  0  0  0  0  0  0
    0.2870   -0.0867    2.1384 H   0  0  0  0  0  0  0  0  0  0  0  0
  1  2  1  0
  1 23  1  6
  1 24  1  0
  1 25  1  0
  2  3  1  6
  2 22  1  0
  2  4  1  0
  4  5  1  0
  4 26  1  1
  4 27  1  0
  5  6  1  0
  5 28  1  6
  5 29  1  0
  6  7  1  0
  6 30  1  1
  6 31  1  0
  8  7  1  6
  7 22  1  0
  8  9  2  0
  8 10  2  0
  8 11  1  0
 11 21  2  0
 11 12  1  0
 12 13  2  0
 12 32  1  0
 13 14  1  0
 13 15  1  0
 15 16  2  0
 15 33  1  0
 16 17  1  0
 16 21  1  0
 17 18  1  6
 17 19  1  0
 17 20  1  0
 21 34  1  0
 22 35  1  6
 22 36  1  0
M  END
$$$$
