ZINC000013059066
     RDKit          3D

 61 63  0  0  0  0  0  0  0  0999 V2000
    3.5767   -0.1357    2.6473 C   0  0  1  0  0  0  0  0  0  0  0  0
    3.6399   -0.8232    3.9868 C   0  0  0  0  0  0  0  0  0  0  0  0
    4.7538   -1.5625    4.3325 C   0  0  0  0  0  0  0  0  0  0  0  0
    4.8123   -2.1941    5.5615 C   0  0  0  0  0  0  0  0  0  0  0  0
    3.7567   -2.0873    6.4479 C   0  0  0  0  0  0  0  0  0  0  0  0
    2.6397   -1.3489    6.1084 C   0  0  0  0  0  0  0  0  0  0  0  0
    1.4898   -1.2325    7.0754 C   0  0  1  0  0  0  0  0  0  0  0  0
    0.9337   -2.6257    7.3765 C   0  0  1  0  0  0  0  0  0  0  0  0
    1.9785   -0.5869    8.3736 C   0  0  1  0  0  0  0  0  0  0  0  0
    2.5801   -0.7092    4.8774 C   0  0  0  0  0  0  0  0  0  0  0  0
    1.4504    0.0400    4.5306 N   0  0  0  0  0  0  0  0  0  0  0  0
    1.5515    1.3735    4.3629 C   0  0  0  0  0  0  0  0  0  0  0  0
    2.6327    1.9156    4.4520 O   0  0  0  0  0  0  0  0  0  0  0  0
    0.3210    2.1908    4.0647 C   0  0  1  0  0  0  0  0  0  0  0  0
    0.7106    3.5807    3.7920 N   0  0  0  0  0  0  0  0  0  0  0  0
    1.6206    3.6563    2.6413 C   0  0  1  0  0  0  0  0  0  0  0  0
    1.8584    5.1259    2.2780 C   0  0  1  0  0  0  0  0  0  0  0  0
    2.3171    5.8364    3.4814 N   0  0  0  0  0  0  0  0  0  0  0  0
    3.6847    6.7696    3.4480 S   0  0  1  0  0  0  0  0  0  0  0  0
    4.1517    6.8453    4.7879 O   0  0  0  0  0  0  0  0  0  0  0  0
    4.4778    6.2809    2.3749 O   0  0  0  0  0  0  0  0  0  0  0  0
    3.1921    8.4009    2.9998 C   0  0  0  0  0  0  0  0  0  0  0  0
    3.1496    8.7688    1.6680 C   0  0  0  0  0  0  0  0  0  0  0  0
    2.7632   10.0486    1.3164 C   0  0  0  0  0  0  0  0  0  0  0  0
    2.4187   10.9604    2.2966 C   0  0  0  0  0  0  0  0  0  0  0  0
    1.9979   12.3558    1.9134 C   0  0  1  0  0  0  0  0  0  0  0  0
    0.6122   12.3895    1.7239 F   0  0  0  0  0  0  0  0  0  0  0  0
    2.3509   13.2460    2.9332 F   0  0  0  0  0  0  0  0  0  0  0  0
    2.6399   12.7272    0.7272 F   0  0  0  0  0  0  0  0  0  0  0  0
    2.4599   10.5921    3.6284 C   0  0  0  0  0  0  0  0  0  0  0  0
    2.8426    9.3111    3.9798 C   0  0  0  0  0  0  0  0  0  0  0  0
    1.5287    5.6964    4.7151 C   0  0  1  0  0  0  0  0  0  0  0  0
    1.3039    4.2043    4.9825 C   0  0  1  0  0  0  0  0  0  0  0  0
    4.0930    0.8225    2.7059 H   0  0  0  0  0  0  0  0  0  0  0  0
    4.0565   -0.7615    1.8948 H   0  0  0  0  0  0  0  0  0  0  0  0
    2.5349    0.0291    2.3722 H   0  0  0  0  0  0  0  0  0  0  0  0
    5.5800   -1.6479    3.6422 H   0  0  0  0  0  0  0  0  0  0  0  0
    5.6843   -2.7724    5.8291 H   0  0  0  0  0  0  0  0  0  0  0  0
    3.8052   -2.5820    7.4067 H   0  0  0  0  0  0  0  0  0  0  0  0
    0.7061   -0.6157    6.6355 H   0  0  0  0  0  0  0  0  0  0  0  0
    1.7174   -3.2425    7.8164 H   0  0  0  0  0  0  0  0  0  0  0  0
    0.1019   -2.5415    8.0759 H   0  0  0  0  0  0  0  0  0  0  0  0
    0.5855   -3.0856    6.4516 H   0  0  0  0  0  0  0  0  0  0  0  0
    1.1467   -0.5028    9.0730 H   0  0  0  0  0  0  0  0  0  0  0  0
    2.7622   -1.2037    8.8135 H   0  0  0  0  0  0  0  0  0  0  0  0
    2.3747    0.4056    8.1591 H   0  0  0  0  0  0  0  0  0  0  0  0
    0.5944   -0.4004    4.4108 H   0  0  0  0  0  0  0  0  0  0  0  0
   -0.1868    1.7782    3.1929 H   0  0  0  0  0  0  0  0  0  0  0  0
   -0.3503    2.1634    4.9230 H   0  0  0  0  0  0  0  0  0  0  0  0
    2.5704    3.1867    2.8972 H   0  0  0  0  0  0  0  0  0  0  0  0
    1.1759    3.1389    1.7913 H   0  0  0  0  0  0  0  0  0  0  0  0
    2.6199    5.1924    1.5010 H   0  0  0  0  0  0  0  0  0  0  0  0
    0.9287    5.5702    1.9226 H   0  0  0  0  0  0  0  0  0  0  0  0
    3.4187    8.0564    0.9022 H   0  0  0  0  0  0  0  0  0  0  0  0
    2.7307   10.3362    0.2759 H   0  0  0  0  0  0  0  0  0  0  0  0
    2.1904   11.3044    4.3942 H   0  0  0  0  0  0  0  0  0  0  0  0
    2.8748    9.0234    5.0202 H   0  0  0  0  0  0  0  0  0  0  0  0
    2.0722    6.1400    5.5493 H   0  0  0  0  0  0  0  0  0  0  0  0
    0.5673    6.1955    4.5939 H   0  0  0  0  0  0  0  0  0  0  0  0
    0.6295    4.0843    5.8303 H   0  0  0  0  0  0  0  0  0  0  0  0
    2.2581    3.7270    5.2058 H   0  0  0  0  0  0  0  0  0  0  0  0
  1  2  1  0
  1 34  1  1
  1 35  1  0
  1 36  1  0
  2 10  2  0
  2  3  1  0
  3  4  2  0
  3 37  1  0
  4  5  1  0
  4 38  1  0
  5  6  2  0
  5 39  1  0
  6  7  1  0
  6 10  1  0
  7  8  1  0
  7  9  1  0
  7 40  1  6
  8 41  1  1
  8 42  1  0
  8 43  1  0
  9 44  1  1
  9 45  1  0
  9 46  1  0
 10 11  1  0
 11 12  1  0
 11 47  1  0
 12 13  2  0
 12 14  1  0
 14 15  1  0
 14 48  1  6
 14 49  1  0
 15 33  1  0
 15 16  1  0
 16 17  1  0
 16 50  1  1
 16 51  1  0
 17 18  1  0
 17 52  1  6
 17 53  1  0
 19 18  1  1
 18 32  1  0
 19 20  2  0
 19 21  2  0
 19 22  1  0
 22 31  2  0
 22 23  1  0
 23 24  2  0
 23 54  1  0
 24 25  1  0
 24 55  1  0
 25 26  1  0
 25 30  2  0
 26 27  1  6
 26 28  1  0
 26 29  1  0
 30 31  1  0
 30 56  1  0
 31 57  1  0
 32 33  1  0
 32 58  1  1
 32 59  1  0
 33 60  1  1
 33 61  1  0
M  END
$$$$
