ZINC000002958767
     RDKit          3D

 55 56  0  0  1  0  0  0  0  0999 V2000
   -0.0187    1.5258    0.0104 C   0  0  1  0  0  0  0  0  0  0  0  0
    0.0021   -0.0041    0.0020 C   0  0  1  0  0  0  0  0  0  0  0  0
    0.7421   -0.5109    1.2415 C   0  0  2  0  0  0  0  0  0  0  0  0
    1.7350   -0.0630    1.2804 H   0  0  0  0  0  0  0  0  0  0  0  0
    0.8719   -2.0337    1.1708 C   0  0  1  0  0  0  0  0  0  0  0  0
   -0.0083   -0.1401    2.4439 N   0  0  0  0  0  0  0  0  0  0  0  0
    0.6303   -0.0111    3.6237 C   0  0  0  0  0  0  0  0  0  0  0  0
    1.8262   -0.2020    3.6901 O   0  0  0  0  0  0  0  0  0  0  0  0
   -0.1416    0.3704    4.8606 C   0  0  1  0  0  0  0  0  0  0  0  0
    0.7725    0.4448    6.0030 N   0  0  0  0  0  0  0  0  0  0  0  0
    1.5227    1.6762    6.2619 C   0  0  1  0  0  0  0  0  0  0  0  0
    0.6576    2.6382    7.0787 C   0  0  1  0  0  0  0  0  0  0  0  0
    1.4293    3.9050    7.3450 C   0  0  0  0  0  0  0  0  0  0  0  0
    2.2164    4.0099    8.4765 C   0  0  0  0  0  0  0  0  0  0  0  0
    2.9243    5.1718    8.7208 C   0  0  0  0  0  0  0  0  0  0  0  0
    2.8454    6.2287    7.8333 C   0  0  0  0  0  0  0  0  0  0  0  0
    2.0591    6.1235    6.7013 C   0  0  0  0  0  0  0  0  0  0  0  0
    1.3546    4.9599    6.4548 C   0  0  0  0  0  0  0  0  0  0  0  0
    0.9576   -0.8630    7.0018 S   0  0  1  0  0  0  0  0  0  0  0  0
    1.4157   -0.3551    8.2474 O   0  0  0  0  0  0  0  0  0  0  0  0
   -0.2236   -1.6414    6.8670 O   0  0  0  0  0  0  0  0  0  0  0  0
    2.2724   -1.8368    6.3478 C   0  0  0  0  0  0  0  0  0  0  0  0
    2.0037   -2.8311    5.4258 C   0  0  0  0  0  0  0  0  0  0  0  0
    3.0352   -3.5950    4.9127 C   0  0  0  0  0  0  0  0  0  0  0  0
    4.3355   -3.3644    5.3212 C   0  0  0  0  0  0  0  0  0  0  0  0
    5.4599   -4.1975    4.7622 C   0  0  1  0  0  0  0  0  0  0  0  0
    4.6044   -2.3692    6.2421 C   0  0  0  0  0  0  0  0  0  0  0  0
    3.5734   -1.6027    6.7524 C   0  0  0  0  0  0  0  0  0  0  0  0
    1.0039    1.9031    0.0027 H   0  0  0  0  0  0  0  0  0  0  0  0
   -0.5459    1.8868   -0.8726 H   0  0  0  0  0  0  0  0  0  0  0  0
   -0.5289    1.8773    0.9072 H   0  0  0  0  0  0  0  0  0  0  0  0
   -1.0205   -0.3814    0.0098 H   0  0  0  0  0  0  0  0  0  0  0  0
    0.5123   -0.3556   -0.8948 H   0  0  0  0  0  0  0  0  0  0  0  0
    1.3991   -2.3948    2.0539 H   0  0  0  0  0  0  0  0  0  0  0  0
   -0.1210   -2.4817    1.1320 H   0  0  0  0  0  0  0  0  0  0  0  0
    1.4302   -2.3096    0.2763 H   0  0  0  0  0  0  0  0  0  0  0  0
   -0.9647    0.0126    2.3909 H   0  0  0  0  0  0  0  0  0  0  0  0
   -0.6138    1.3411    4.7092 H   0  0  0  0  0  0  0  0  0  0  0  0
   -0.9077   -0.3798    5.0565 H   0  0  0  0  0  0  0  0  0  0  0  0
    2.4286    1.4393    6.8198 H   0  0  0  0  0  0  0  0  0  0  0  0
    1.7912    2.1440    5.3147 H   0  0  0  0  0  0  0  0  0  0  0  0
   -0.2483    2.8752    6.5208 H   0  0  0  0  0  0  0  0  0  0  0  0
    0.3891    2.1705    8.0259 H   0  0  0  0  0  0  0  0  0  0  0  0
    2.2780    3.1841    9.1699 H   0  0  0  0  0  0  0  0  0  0  0  0
    3.5387    5.2540    9.6052 H   0  0  0  0  0  0  0  0  0  0  0  0
    3.3979    7.1368    8.0245 H   0  0  0  0  0  0  0  0  0  0  0  0
    1.9972    6.9493    6.0081 H   0  0  0  0  0  0  0  0  0  0  0  0
    0.7402    4.8777    5.5704 H   0  0  0  0  0  0  0  0  0  0  0  0
    0.9878   -3.0113    5.1067 H   0  0  0  0  0  0  0  0  0  0  0  0
    2.8251   -4.3723    4.1929 H   0  0  0  0  0  0  0  0  0  0  0  0
    5.8514   -3.7227    3.8625 H   0  0  0  0  0  0  0  0  0  0  0  0
    6.2541   -4.2807    5.5041 H   0  0  0  0  0  0  0  0  0  0  0  0
    5.0875   -5.1918    4.5155 H   0  0  0  0  0  0  0  0  0  0  0  0
    5.6204   -2.1887    6.5610 H   0  0  0  0  0  0  0  0  0  0  0  0
    3.7835   -0.8251    7.4719 H   0  0  0  0  0  0  0  0  0  0  0  0
  1  2  1  0
  1 29  1  6
  1 30  1  0
  1 31  1  0
  2  3  1  0
  2 32  1  1
  2 33  1  0
  3  4  1  1
  3  5  1  0
  3  6  1  0
  5 34  1  1
  5 35  1  0
  5 36  1  0
  6  7  1  0
  6 37  1  0
  7  8  2  0
  7  9  1  0
  9 10  1  0
  9 38  1  6
  9 39  1  0
 10 11  1  0
 19 10  1  6
 11 12  1  0
 11 40  1  1
 11 41  1  0
 12 13  1  0
 12 42  1  6
 12 43  1  0
 13 18  2  0
 13 14  1  0
 14 15  2  0
 14 44  1  0
 15 16  1  0
 15 45  1  0
 16 17  2  0
 16 46  1  0
 17 18  1  0
 17 47  1  0
 18 48  1  0
 19 20  2  0
 19 21  2  0
 19 22  1  0
 22 28  2  0
 22 23  1  0
 23 24  2  0
 23 49  1  0
 24 25  1  0
 24 50  1  0
 25 26  1  0
 25 27  2  0
 26 51  1  6
 26 52  1  0
 26 53  1  0
 27 28  1  0
 27 54  1  0
 28 55  1  0
M  END
$$$$
