ZINC000001133096
     RDKit          3D

 57 59  0  0  1  0  0  0  0  0999 V2000
   -3.5573   -9.2274   -0.1152 C   0  0  1  0  0  0  0  0  0  0  0  0
   -2.6433   -8.0296   -0.0862 C   0  0  0  0  0  0  0  0  0  0  0  0
   -2.3110   -7.4429    1.1206 C   0  0  0  0  0  0  0  0  0  0  0  0
   -1.4726   -6.3441    1.1472 C   0  0  0  0  0  0  0  0  0  0  0  0
   -0.9661   -5.8324   -0.0328 C   0  0  0  0  0  0  0  0  0  0  0  0
    0.1021   -4.4316    0.0011 S   0  0  1  0  0  0  0  0  0  0  0  0
   -0.0100   -3.8105   -1.2721 O   0  0  0  0  0  0  0  0  0  0  0  0
   -0.1626   -3.7546    1.2221 O   0  0  0  0  0  0  0  0  0  0  0  0
    1.6536   -5.0006    0.1087 N   0  0  0  0  0  0  0  0  0  0  0  0
    2.2155   -5.3532    1.4149 C   0  0  1  0  0  0  0  0  0  0  0  0
    2.0395   -6.8305    1.6553 C   0  0  0  0  0  0  0  0  0  0  0  0
    1.4980   -7.5208    0.8179 O   0  0  0  0  0  0  0  0  0  0  0  0
    2.4839   -7.3845    2.8007 N   0  0  0  0  0  0  0  0  0  0  0  0
    2.3128   -8.8206    3.0344 C   0  0  1  0  0  0  0  0  0  0  0  0
    2.8997   -9.1888    4.3986 C   0  0  1  0  0  0  0  0  0  0  0  0
    2.4008   -8.6272    5.1884 H   0  0  0  0  0  0  0  0  0  0  0  0
    2.7603  -10.7112    4.6508 C   0  0  1  0  0  0  0  0  0  0  0  0
    3.9140  -10.9492    5.6628 C   0  0  1  0  0  0  0  0  0  0  0  0
    4.9817   -9.9416    5.1853 C   0  0  1  0  0  0  0  0  0  0  0  0
    4.3126   -8.9308    4.4195 O   0  0  0  0  0  0  0  0  0  0  0  0
    2.4641   -5.1515   -1.1023 C   0  0  1  0  0  0  0  0  0  0  0  0
    3.3251   -3.9284   -1.2860 C   0  0  0  0  0  0  0  0  0  0  0  0
    2.8966   -2.8977   -2.1011 C   0  0  0  0  0  0  0  0  0  0  0  0
    3.6866   -1.7757   -2.2697 C   0  0  0  0  0  0  0  0  0  0  0  0
    4.9046   -1.6844   -1.6228 C   0  0  0  0  0  0  0  0  0  0  0  0
    5.3328   -2.7150   -0.8067 C   0  0  0  0  0  0  0  0  0  0  0  0
    6.6610   -2.6158   -0.1018 C   0  0  1  0  0  0  0  0  0  0  0  0
    4.5412   -3.8349   -0.6348 C   0  0  0  0  0  0  0  0  0  0  0  0
   -1.2973   -6.4200   -1.2394 C   0  0  0  0  0  0  0  0  0  0  0  0
   -2.1327   -7.5211   -1.2658 C   0  0  0  0  0  0  0  0  0  0  0  0
   -2.9644  -10.1389   -0.0386 H   0  0  0  0  0  0  0  0  0  0  0  0
   -4.2523   -9.1746    0.7229 H   0  0  0  0  0  0  0  0  0  0  0  0
   -4.1164   -9.2353   -1.0509 H   0  0  0  0  0  0  0  0  0  0  0  0
   -2.7067   -7.8427    2.0425 H   0  0  0  0  0  0  0  0  0  0  0  0
   -1.2135   -5.8853    2.0900 H   0  0  0  0  0  0  0  0  0  0  0  0
    3.2770   -5.1062    1.4324 H   0  0  0  0  0  0  0  0  0  0  0  0
    1.6994   -4.7941    2.1954 H   0  0  0  0  0  0  0  0  0  0  0  0
    2.9170   -6.8323    3.4704 H   0  0  0  0  0  0  0  0  0  0  0  0
    1.2513   -9.0676    3.0169 H   0  0  0  0  0  0  0  0  0  0  0  0
    2.8289   -9.3797    2.2539 H   0  0  0  0  0  0  0  0  0  0  0  0
    1.7934  -10.9490    5.0943 H   0  0  0  0  0  0  0  0  0  0  0  0
    2.9194  -11.2776    3.7332 H   0  0  0  0  0  0  0  0  0  0  0  0
    3.5921  -10.7210    6.6788 H   0  0  0  0  0  0  0  0  0  0  0  0
    4.2865  -11.9712    5.5930 H   0  0  0  0  0  0  0  0  0  0  0  0
    5.4724   -9.4871    6.0460 H   0  0  0  0  0  0  0  0  0  0  0  0
    5.7187  -10.4504    4.5639 H   0  0  0  0  0  0  0  0  0  0  0  0
    3.0994   -6.0321   -1.0069 H   0  0  0  0  0  0  0  0  0  0  0  0
    1.8091   -5.2678   -1.9657 H   0  0  0  0  0  0  0  0  0  0  0  0
    1.9449   -2.9690   -2.6066 H   0  0  0  0  0  0  0  0  0  0  0  0
    3.3520   -0.9706   -2.9071 H   0  0  0  0  0  0  0  0  0  0  0  0
    5.5219   -0.8082   -1.7550 H   0  0  0  0  0  0  0  0  0  0  0  0
    6.5213   -2.1464    0.8721 H   0  0  0  0  0  0  0  0  0  0  0  0
    7.0767   -3.6144    0.0325 H   0  0  0  0  0  0  0  0  0  0  0  0
    7.3458   -2.0146   -0.6999 H   0  0  0  0  0  0  0  0  0  0  0  0
    4.8757   -4.6400    0.0027 H   0  0  0  0  0  0  0  0  0  0  0  0
   -0.9013   -6.0204   -2.1614 H   0  0  0  0  0  0  0  0  0  0  0  0
   -2.3914   -7.9802   -2.2085 H   0  0  0  0  0  0  0  0  0  0  0  0
  1  2  1  0
  1 31  1  1
  1 32  1  0
  1 33  1  0
  2 30  2  0
  2  3  1  0
  3  4  2  0
  3 34  1  0
  4  5  1  0
  4 35  1  0
  5  6  1  0
  5 29  2  0
  6  7  2  0
  6  8  2  0
  6  9  1  1
  9 10  1  0
  9 21  1  0
 10 11  1  0
 10 36  1  6
 10 37  1  0
 11 12  2  0
 11 13  1  0
 13 14  1  0
 13 38  1  0
 14 15  1  0
 14 39  1  1
 14 40  1  0
 15 16  1  1
 15 20  1  0
 15 17  1  0
 17 18  1  0
 17 41  1  1
 17 42  1  0
 18 19  1  0
 18 43  1  1
 18 44  1  0
 19 20  1  0
 19 45  1  1
 19 46  1  0
 21 22  1  0
 21 47  1  1
 21 48  1  0
 22 28  2  0
 22 23  1  0
 23 24  2  0
 23 49  1  0
 24 25  1  0
 24 50  1  0
 25 26  2  0
 25 51  1  0
 26 27  1  0
 26 28  1  0
 27 52  1  1
 27 53  1  0
 27 54  1  0
 28 55  1  0
 29 30  1  0
 29 56  1  0
 30 57  1  0
M  END
$$$$
