ZINC000020069905
     RDKit          3D

 47 49  0  0  1  0  0  0  0  0999 V2000
    0.0021   -0.0041    0.0020 O   0  0  0  0  0  0  0  0  0  0  0  0
   -0.0144    1.2086    0.0087 C   0  0  0  0  0  0  0  0  0  0  0  0
    1.1435    1.8983    0.0013 N   0  0  0  0  0  0  0  0  0  0  0  0
    2.4220    1.1832   -0.0147 C   0  0  1  0  0  0  0  0  0  0  0  0
    2.5588    0.3570   -1.2952 C   0  0  1  0  0  0  0  0  0  0  0  0
    2.4831    1.2034   -2.4066 F   0  0  0  0  0  0  0  0  0  0  0  0
    3.7923   -0.3030   -1.2948 F   0  0  0  0  0  0  0  0  0  0  0  0
    1.5260   -0.5848   -1.3551 F   0  0  0  0  0  0  0  0  0  0  0  0
    3.5453    2.1266    0.1196 N   0  0  0  0  0  0  0  0  0  0  0  0
    4.1909    1.7974    1.2531 C   0  0  0  0  0  0  0  0  0  0  0  0
    5.1744    2.3812    1.6644 O   0  0  0  0  0  0  0  0  0  0  0  0
    3.6292    0.7556    1.8769 N   0  0  0  0  0  0  0  0  0  0  0  0
    4.1229    0.1844    3.1324 C   0  0  1  0  0  0  0  0  0  0  0  0
    3.4588    0.8767    4.2947 C   0  0  0  0  0  0  0  0  0  0  0  0
    4.0330    2.0070    4.8457 C   0  0  0  0  0  0  0  0  0  0  0  0
    3.4239    2.6420    5.9118 C   0  0  0  0  0  0  0  0  0  0  0  0
    2.2403    2.1469    6.4266 C   0  0  0  0  0  0  0  0  0  0  0  0
    1.6656    1.0171    5.8750 C   0  0  0  0  0  0  0  0  0  0  0  0
    2.2726    0.3846    4.8061 C   0  0  0  0  0  0  0  0  0  0  0  0
    2.5528    0.2971    1.2082 C   0  0  0  0  0  0  0  0  0  0  0  0
    1.8374   -0.6306    1.5202 O   0  0  0  0  0  0  0  0  0  0  0  0
   -1.3296    1.9443    0.0189 C   0  0  1  0  0  0  0  0  0  0  0  0
   -1.4285    2.8295   -1.2251 C   0  0  1  0  0  0  0  0  0  0  0  0
   -2.7637    3.5764   -1.2147 C   0  0  1  0  0  0  0  0  0  0  0  0
   -3.9130    2.5665   -1.2147 C   0  0  1  0  0  0  0  0  0  0  0  0
   -3.8141    1.6813    0.0293 C   0  0  1  0  0  0  0  0  0  0  0  0
   -2.4789    0.9344    0.0189 C   0  0  1  0  0  0  0  0  0  0  0  0
    1.1304    2.8682    0.0067 H   0  0  0  0  0  0  0  0  0  0  0  0
    3.7751    2.8449   -0.4905 H   0  0  0  0  0  0  0  0  0  0  0  0
    3.8913   -0.8802    3.1631 H   0  0  0  0  0  0  0  0  0  0  0  0
    5.2022    0.3234    3.1952 H   0  0  0  0  0  0  0  0  0  0  0  0
    4.9577    2.3937    4.4435 H   0  0  0  0  0  0  0  0  0  0  0  0
    3.8728    3.5246    6.3428 H   0  0  0  0  0  0  0  0  0  0  0  0
    1.7647    2.6426    7.2600 H   0  0  0  0  0  0  0  0  0  0  0  0
    0.7411    0.6302    6.2774 H   0  0  0  0  0  0  0  0  0  0  0  0
    1.8236   -0.4980    4.3751 H   0  0  0  0  0  0  0  0  0  0  0  0
   -1.3916    2.5653    0.9126 H   0  0  0  0  0  0  0  0  0  0  0  0
   -0.6097    3.5490   -1.2250 H   0  0  0  0  0  0  0  0  0  0  0  0
   -1.3664    2.2085   -2.1187 H   0  0  0  0  0  0  0  0  0  0  0  0
   -2.8257    4.1974   -0.3210 H   0  0  0  0  0  0  0  0  0  0  0  0
   -2.8342    4.2071   -2.1009 H   0  0  0  0  0  0  0  0  0  0  0  0
   -4.8643    3.0986   -1.2073 H   0  0  0  0  0  0  0  0  0  0  0  0
   -3.8510    1.9455   -2.1084 H   0  0  0  0  0  0  0  0  0  0  0  0
   -3.8761    2.3022    0.9230 H   0  0  0  0  0  0  0  0  0  0  0  0
   -4.6329    0.9618    0.0292 H   0  0  0  0  0  0  0  0  0  0  0  0
   -2.4169    0.3134   -0.8748 H   0  0  0  0  0  0  0  0  0  0  0  0
   -2.4084    0.3037    0.9051 H   0  0  0  0  0  0  0  0  0  0  0  0
  1  2  2  0
  2  3  1  0
  2 22  1  0
  3 28  1  0
  4  3  1  6
  4 20  1  0
  4  5  1  0
  4  9  1  0
  5  6  1  6
  5  7  1  0
  5  8  1  0
  9 10  1  0
  9 29  1  0
 10 11  2  0
 10 12  1  0
 12 13  1  0
 12 20  1  0
 13 14  1  0
 13 30  1  6
 13 31  1  0
 14 19  2  0
 14 15  1  0
 15 16  2  0
 15 32  1  0
 16 17  1  0
 16 33  1  0
 17 18  2  0
 17 34  1  0
 18 19  1  0
 18 35  1  0
 19 36  1  0
 20 21  2  0
 22 27  1  0
 22 23  1  0
 22 37  1  1
 23 24  1  0
 23 38  1  6
 23 39  1  0
 24 25  1  0
 24 40  1  1
 24 41  1  0
 25 26  1  0
 25 42  1  1
 25 43  1  0
 26 27  1  0
 26 44  1  1
 26 45  1  0
 27 46  1  6
 27 47  1  0
M  END
$$$$
