ZINC000041129619
     RDKit          3D

 36 37  0  0  1  0  0  0  0  0999 V2000
   -0.0162    1.3436    0.0094 N   0  0  0  0  0  0  0  0  0  0  0  0
    0.0021   -0.0041    0.0020 C   0  0  0  0  0  0  0  0  0  0  0  0
    1.0605   -0.5961   -0.0113 O   0  0  0  0  0  0  0  0  0  0  0  0
   -1.2926   -0.7753    0.0102 C   0  0  1  0  0  0  0  0  0  0  0  0
   -1.8808   -0.5292    0.8943 H   0  0  0  0  0  0  0  0  0  0  0  0
   -2.1040   -0.4995   -1.2832 C   0  0  1  0  0  0  0  0  0  0  0  0
   -2.9444   -1.7952   -1.4053 C   0  0  1  0  0  0  0  0  0  0  0  0
   -2.0453   -2.8722   -0.9524 N   0  0  0  0  0  0  0  0  0  0  0  0
   -2.1426   -4.1723   -1.2942 C   0  0  0  0  0  0  0  0  0  0  0  0
   -1.3435   -4.9748   -0.8602 O   0  0  0  0  0  0  0  0  0  0  0  0
   -3.2443   -4.6288   -2.2156 C   0  0  1  0  0  0  0  0  0  0  0  0
   -3.1302   -6.1150   -2.4372 C   0  0  0  0  0  0  0  0  0  0  0  0
   -2.3642   -6.6015   -3.4800 C   0  0  0  0  0  0  0  0  0  0  0  0
   -2.2596   -7.9648   -3.6834 C   0  0  0  0  0  0  0  0  0  0  0  0
   -2.9206   -8.8416   -2.8436 C   0  0  0  0  0  0  0  0  0  0  0  0
   -2.8069  -10.3278   -3.0655 C   0  0  1  0  0  0  0  0  0  0  0  0
   -1.7169  -10.8252   -2.3432 F   0  0  0  0  0  0  0  0  0  0  0  0
   -3.9795  -10.9552   -2.6313 F   0  0  0  0  0  0  0  0  0  0  0  0
   -2.6187  -10.5828   -4.4282 F   0  0  0  0  0  0  0  0  0  0  0  0
   -3.6854   -8.3551   -1.7999 C   0  0  0  0  0  0  0  0  0  0  0  0
   -3.7870   -6.9919   -1.5943 C   0  0  0  0  0  0  0  0  0  0  0  0
   -1.0244   -2.2933   -0.0620 C   0  0  1  0  0  0  0  0  0  0  0  0
    0.8172    1.8399    0.0041 H   0  0  0  0  0  0  0  0  0  0  0  0
   -0.8627    1.8171    0.0160 H   0  0  0  0  0  0  0  0  0  0  0  0
   -2.7463    0.3729   -1.1630 H   0  0  0  0  0  0  0  0  0  0  0  0
   -1.4426   -0.3805   -2.1414 H   0  0  0  0  0  0  0  0  0  0  0  0
   -3.8231   -1.7393   -0.7628 H   0  0  0  0  0  0  0  0  0  0  0  0
   -3.2407   -1.9589   -2.4413 H   0  0  0  0  0  0  0  0  0  0  0  0
   -4.2111   -4.4015   -1.7664 H   0  0  0  0  0  0  0  0  0  0  0  0
   -3.1568   -4.1112   -3.1708 H   0  0  0  0  0  0  0  0  0  0  0  0
   -1.8478   -5.9165   -4.1362 H   0  0  0  0  0  0  0  0  0  0  0  0
   -1.6617   -8.3449   -4.4985 H   0  0  0  0  0  0  0  0  0  0  0  0
   -4.2015   -9.0402   -1.1436 H   0  0  0  0  0  0  0  0  0  0  0  0
   -4.3845   -6.6119   -0.7789 H   0  0  0  0  0  0  0  0  0  0  0  0
   -0.0304   -2.4727   -0.4717 H   0  0  0  0  0  0  0  0  0  0  0  0
   -1.1040   -2.7364    0.9307 H   0  0  0  0  0  0  0  0  0  0  0  0
  1  2  1  0
  1 23  1  0
  1 24  1  0
  2  3  2  0
  2  4  1  0
  4  5  1  1
  4 22  1  0
  4  6  1  0
  6  7  1  0
  6 25  1  1
  6 26  1  0
  7  8  1  0
  7 27  1  1
  7 28  1  0
  8  9  1  0
  8 22  1  0
  9 10  2  0
  9 11  1  0
 11 12  1  0
 11 29  1  1
 11 30  1  0
 12 21  2  0
 12 13  1  0
 13 14  2  0
 13 31  1  0
 14 15  1  0
 14 32  1  0
 15 16  1  0
 15 20  2  0
 16 17  1  1
 16 18  1  0
 16 19  1  0
 20 21  1  0
 20 33  1  0
 21 34  1  0
 22 35  1  6
 22 36  1  0
M  END
$$$$
