ZINC000039985873
     RDKit          3D

 58 60  0  0  1  0  0  0  0  0999 V2000
   -0.0187    1.5258    0.0104 C   0  0  1  0  0  0  0  0  0  0  0  0
    0.0021   -0.0041    0.0020 C   0  0  1  0  0  0  0  0  0  0  0  0
   -1.3723   -0.5112    0.0124 N   0  0  0  0  0  0  0  0  0  0  0  0
   -2.1099   -0.6542   -1.2453 C   0  0  1  0  0  0  0  0  0  0  0  0
   -1.7778   -1.9829   -1.8740 C   0  0  0  0  0  0  0  0  0  0  0  0
   -1.0015   -2.7362   -1.3256 O   0  0  0  0  0  0  0  0  0  0  0  0
   -2.3435   -2.3340   -3.0459 N   0  0  0  0  0  0  0  0  0  0  0  0
   -2.0207   -3.6257   -3.6571 C   0  0  2  0  0  0  0  0  0  0  0  0
   -1.8733   -4.3709   -2.8754 H   0  0  0  0  0  0  0  0  0  0  0  0
   -0.7398   -3.4931   -4.4833 C   0  0  1  0  0  0  0  0  0  0  0  0
   -3.1714   -4.0613   -4.5665 C   0  0  1  0  0  0  0  0  0  0  0  0
   -4.4215   -4.3145   -3.7216 C   0  0  1  0  0  0  0  0  0  0  0  0
   -5.5549   -4.7436   -4.6174 C   0  0  0  0  0  0  0  0  0  0  0  0
   -6.3958   -3.7959   -5.1701 C   0  0  0  0  0  0  0  0  0  0  0  0
   -7.4354   -4.1895   -5.9918 C   0  0  0  0  0  0  0  0  0  0  0  0
   -7.6338   -5.5307   -6.2611 C   0  0  0  0  0  0  0  0  0  0  0  0
   -6.7923   -6.4784   -5.7091 C   0  0  0  0  0  0  0  0  0  0  0  0
   -5.7501   -6.0845   -4.8908 C   0  0  0  0  0  0  0  0  0  0  0  0
   -2.0922   -0.9227    1.4458 S   0  0  1  0  0  0  0  0  0  0  0  0
   -3.1196   -1.8512    1.1269 O   0  0  0  0  0  0  0  0  0  0  0  0
   -1.0393   -1.2108    2.3555 O   0  0  0  0  0  0  0  0  0  0  0  0
   -2.8978    0.5199    2.0580 C   0  0  0  0  0  0  0  0  0  0  0  0
   -2.2005    1.3953    2.8879 C   0  0  0  0  0  0  0  0  0  0  0  0
   -2.7932    2.5186    3.3778 C   0  0  0  0  0  0  0  0  0  0  0  0
   -4.1280    2.8024    3.0436 C   0  0  0  0  0  0  0  0  0  0  0  0
   -4.7736    3.9524    3.5296 C   0  0  0  0  0  0  0  0  0  0  0  0
   -6.0674    4.1949    3.1843 C   0  0  0  0  0  0  0  0  0  0  0  0
   -6.7650    3.3191    2.3542 C   0  0  0  0  0  0  0  0  0  0  0  0
   -6.1726    2.1959    1.8648 C   0  0  0  0  0  0  0  0  0  0  0  0
   -4.8375    1.9117    2.1994 C   0  0  0  0  0  0  0  0  0  0  0  0
   -4.1904    0.7653    1.7085 C   0  0  0  0  0  0  0  0  0  0  0  0
    1.0039    1.9031    0.0027 H   0  0  0  0  0  0  0  0  0  0  0  0
   -0.5459    1.8868   -0.8726 H   0  0  0  0  0  0  0  0  0  0  0  0
   -0.5289    1.8773    0.9072 H   0  0  0  0  0  0  0  0  0  0  0  0
    0.5123   -0.3556   -0.8948 H   0  0  0  0  0  0  0  0  0  0  0  0
    0.5293   -0.3651    0.8851 H   0  0  0  0  0  0  0  0  0  0  0  0
   -3.1804   -0.6037   -1.0465 H   0  0  0  0  0  0  0  0  0  0  0  0
   -1.8283    0.1500   -1.9251 H   0  0  0  0  0  0  0  0  0  0  0  0
   -2.9644   -1.7315   -3.4845 H   0  0  0  0  0  0  0  0  0  0  0  0
    0.0799   -3.1827   -3.8354 H   0  0  0  0  0  0  0  0  0  0  0  0
   -0.4996   -4.4541   -4.9381 H   0  0  0  0  0  0  0  0  0  0  0  0
   -0.8872   -2.7479   -5.2650 H   0  0  0  0  0  0  0  0  0  0  0  0
   -3.3772   -3.2758   -5.2936 H   0  0  0  0  0  0  0  0  0  0  0  0
   -2.8947   -4.9769   -5.0894 H   0  0  0  0  0  0  0  0  0  0  0  0
   -4.2156   -5.1001   -2.9945 H   0  0  0  0  0  0  0  0  0  0  0  0
   -4.6982   -3.3990   -3.1987 H   0  0  0  0  0  0  0  0  0  0  0  0
   -6.2408   -2.7480   -4.9597 H   0  0  0  0  0  0  0  0  0  0  0  0
   -8.0929   -3.4491   -6.4231 H   0  0  0  0  0  0  0  0  0  0  0  0
   -8.4465   -5.8383   -6.9025 H   0  0  0  0  0  0  0  0  0  0  0  0
   -6.9475   -7.5263   -5.9192 H   0  0  0  0  0  0  0  0  0  0  0  0
   -5.0927   -6.8249   -4.4596 H   0  0  0  0  0  0  0  0  0  0  0  0
   -1.1744    1.1793    3.1466 H   0  0  0  0  0  0  0  0  0  0  0  0
   -2.2404    3.1879    4.0204 H   0  0  0  0  0  0  0  0  0  0  0  0
   -4.2458    4.6398    4.1739 H   0  0  0  0  0  0  0  0  0  0  0  0
   -6.5612    5.0791    3.5594 H   0  0  0  0  0  0  0  0  0  0  0  0
   -7.7912    3.5349    2.0958 H   0  0  0  0  0  0  0  0  0  0  0  0
   -6.7257    1.5262    1.2229 H   0  0  0  0  0  0  0  0  0  0  0  0
   -4.7169    0.0802    1.0605 H   0  0  0  0  0  0  0  0  0  0  0  0
  1  2  1  0
  1 32  1  6
  1 33  1  0
  1 34  1  0
  2  3  1  0
  2 35  1  6
  2 36  1  0
  3  4  1  0
 19  3  1  6
  4  5  1  0
  4 37  1  1
  4 38  1  0
  5  6  2  0
  5  7  1  0
  7  8  1  0
  7 39  1  0
  8  9  1  1
  8 10  1  0
  8 11  1  0
 10 40  1  1
 10 41  1  0
 10 42  1  0
 11 12  1  0
 11 43  1  6
 11 44  1  0
 12 13  1  0
 12 45  1  1
 12 46  1  0
 13 18  2  0
 13 14  1  0
 14 15  2  0
 14 47  1  0
 15 16  1  0
 15 48  1  0
 16 17  2  0
 16 49  1  0
 17 18  1  0
 17 50  1  0
 18 51  1  0
 19 20  2  0
 19 21  2  0
 19 22  1  0
 22 31  2  0
 22 23  1  0
 23 24  2  0
 23 52  1  0
 24 25  1  0
 24 53  1  0
 25 30  2  0
 25 26  1  0
 26 27  2  0
 26 54  1  0
 27 28  1  0
 27 55  1  0
 28 29  2  0
 28 56  1  0
 29 30  1  0
 29 57  1  0
 30 31  1  0
 31 58  1  0
M  END
$$$$
