ZINC000408618783
     RDKit          3D

 56 57  0  0  1  0  0  0  0  0999 V2000
   -0.0173    1.4248    0.0099 C   0  0  1  0  0  0  0  0  0  0  0  0
    0.0021   -0.0041    0.0020 O   0  0  0  0  0  0  0  0  0  0  0  0
   -1.2953   -0.6030    0.0112 C   0  0  1  0  0  0  0  0  0  0  0  0
   -1.1538   -2.1264    0.0017 C   0  0  2  0  0  0  0  0  0  0  0  0
   -2.1387   -2.5834    0.0982 H   0  0  0  0  0  0  0  0  0  0  0  0
   -0.2716   -2.5640    1.1726 C   0  0  1  0  0  0  0  0  0  0  0  0
   -0.5394   -2.5519   -1.2584 N   0  0  0  0  0  0  0  0  0  0  0  0
   -0.7570   -3.7964   -1.7277 C   0  0  0  0  0  0  0  0  0  0  0  0
   -1.4615   -4.5641   -1.1069 O   0  0  0  0  0  0  0  0  0  0  0  0
   -0.1250   -4.2341   -3.0239 C   0  0  1  0  0  0  0  0  0  0  0  0
   -0.5122   -5.6171   -3.3134 N   0  0  0  0  0  0  0  0  0  0  0  0
   -1.7767   -5.8956   -3.9986 C   0  0  1  0  0  0  0  0  0  0  0  0
   -1.5740   -5.7929   -5.4884 C   0  0  0  0  0  0  0  0  0  0  0  0
   -1.7547   -4.5811   -6.1286 C   0  0  0  0  0  0  0  0  0  0  0  0
   -1.5687   -4.4869   -7.4952 C   0  0  0  0  0  0  0  0  0  0  0  0
   -1.2017   -5.6044   -8.2214 C   0  0  0  0  0  0  0  0  0  0  0  0
   -0.9995   -5.5018   -9.7113 C   0  0  1  0  0  0  0  0  0  0  0  0
   -1.0198   -6.8158   -7.5810 C   0  0  0  0  0  0  0  0  0  0  0  0
   -1.2020   -6.9092   -6.2139 C   0  0  0  0  0  0  0  0  0  0  0  0
    0.4796   -6.8655   -2.8661 S   0  0  1  0  0  0  0  0  0  0  0  0
    0.1604   -7.9567   -3.7185 O   0  0  0  0  0  0  0  0  0  0  0  0
    1.7874   -6.3202   -2.7583 O   0  0  0  0  0  0  0  0  0  0  0  0
    0.0070   -7.3500   -1.2393 C   0  0  0  0  0  0  0  0  0  0  0  0
    0.5967   -6.7522   -0.1413 C   0  0  0  0  0  0  0  0  0  0  0  0
    0.2259   -7.1323    1.1350 C   0  0  0  0  0  0  0  0  0  0  0  0
   -0.7350   -8.1100    1.3132 C   0  0  0  0  0  0  0  0  0  0  0  0
   -1.1390   -8.5247    2.7046 C   0  0  1  0  0  0  0  0  0  0  0  0
   -1.3258   -8.7068    0.2152 C   0  0  0  0  0  0  0  0  0  0  0  0
   -0.9577   -8.3240   -1.0611 C   0  0  0  0  0  0  0  0  0  0  0  0
    1.0053    1.8021    0.0021 H   0  0  0  0  0  0  0  0  0  0  0  0
   -0.5445    1.7859   -0.8732 H   0  0  0  0  0  0  0  0  0  0  0  0
   -0.5275    1.7763    0.9067 H   0  0  0  0  0  0  0  0  0  0  0  0
   -1.8320   -0.2936    0.9080 H   0  0  0  0  0  0  0  0  0  0  0  0
   -1.8490   -0.2840   -0.8718 H   0  0  0  0  0  0  0  0  0  0  0  0
   -0.7287   -2.2474    2.1101 H   0  0  0  0  0  0  0  0  0  0  0  0
   -0.1708   -3.6493    1.1658 H   0  0  0  0  0  0  0  0  0  0  0  0
    0.7133   -2.1070    1.0761 H   0  0  0  0  0  0  0  0  0  0  0  0
    0.0240   -1.9380   -1.7549 H   0  0  0  0  0  0  0  0  0  0  0  0
   -0.4647   -3.5852   -3.8311 H   0  0  0  0  0  0  0  0  0  0  0  0
    0.9598   -4.1708   -2.9387 H   0  0  0  0  0  0  0  0  0  0  0  0
   -2.1130   -6.9012   -3.7462 H   0  0  0  0  0  0  0  0  0  0  0  0
   -2.5280   -5.1714   -3.6834 H   0  0  0  0  0  0  0  0  0  0  0  0
   -2.0414   -3.7081   -5.5612 H   0  0  0  0  0  0  0  0  0  0  0  0
   -1.7106   -3.5403   -7.9955 H   0  0  0  0  0  0  0  0  0  0  0  0
    0.0400   -5.2492   -9.9203 H   0  0  0  0  0  0  0  0  0  0  0  0
   -1.2422   -6.4567  -10.1775 H   0  0  0  0  0  0  0  0  0  0  0  0
   -1.6500   -4.7252  -10.1136 H   0  0  0  0  0  0  0  0  0  0  0  0
   -0.7327   -7.6888   -8.1484 H   0  0  0  0  0  0  0  0  0  0  0  0
   -1.0598   -7.8557   -5.7136 H   0  0  0  0  0  0  0  0  0  0  0  0
    1.3475   -5.9884   -0.2805 H   0  0  0  0  0  0  0  0  0  0  0  0
    0.6872   -6.6658    1.9928 H   0  0  0  0  0  0  0  0  0  0  0  0
   -1.9690   -7.9041    3.0421 H   0  0  0  0  0  0  0  0  0  0  0  0
   -1.4467   -9.5703    2.6971 H   0  0  0  0  0  0  0  0  0  0  0  0
   -0.2933   -8.3996    3.3809 H   0  0  0  0  0  0  0  0  0  0  0  0
   -2.0768   -9.4703    0.3544 H   0  0  0  0  0  0  0  0  0  0  0  0
   -1.4193   -8.7902   -1.9190 H   0  0  0  0  0  0  0  0  0  0  0  0
  1  2  1  0
  1 30  1  6
  1 31  1  0
  1 32  1  0
  2  3  1  0
  3  4  1  0
  3 33  1  1
  3 34  1  0
  4  5  1  1
  4  6  1  0
  4  7  1  0
  6 35  1  1
  6 36  1  0
  6 37  1  0
  7  8  1  0
  7 38  1  0
  8  9  2  0
  8 10  1  0
 10 11  1  0
 10 39  1  6
 10 40  1  0
 11 12  1  0
 20 11  1  6
 12 13  1  0
 12 41  1  6
 12 42  1  0
 13 19  2  0
 13 14  1  0
 14 15  2  0
 14 43  1  0
 15 16  1  0
 15 44  1  0
 16 17  1  0
 16 18  2  0
 17 45  1  1
 17 46  1  0
 17 47  1  0
 18 19  1  0
 18 48  1  0
 19 49  1  0
 20 21  2  0
 20 22  2  0
 20 23  1  0
 23 29  2  0
 23 24  1  0
 24 25  2  0
 24 50  1  0
 25 26  1  0
 25 51  1  0
 26 27  1  0
 26 28  2  0
 27 52  1  1
 27 53  1  0
 27 54  1  0
 28 29  1  0
 28 55  1  0
 29 56  1  0
M  END
$$$$
