ZINC000069629413
     RDKit          3D

 28 29  0  0  0  0  0  0  0  0999 V2000
    0.0021   -0.0041    0.0020 O   0  0  0  0  0  0  0  0  0  0  0  0
   -0.0172    1.4168    0.0098 S   0  0  1  0  0  0  0  0  0  0  0  0
    1.1617    2.2101    0.0028 O   0  0  0  0  0  0  0  0  0  0  0  0
   -0.9567    1.9094   -1.3970 C   0  0  0  0  0  0  0  0  0  0  0  0
   -1.8848    1.0442   -1.9458 C   0  0  0  0  0  0  0  0  0  0  0  0
   -2.6219    1.4307   -3.0496 C   0  0  0  0  0  0  0  0  0  0  0  0
   -2.4313    2.6825   -3.6042 C   0  0  0  0  0  0  0  0  0  0  0  0
   -3.2345    3.1036   -4.8078 C   0  0  1  0  0  0  0  0  0  0  0  0
   -4.4138    3.7273   -4.3864 F   0  0  0  0  0  0  0  0  0  0  0  0
   -2.4843    3.9973   -5.5796 F   0  0  0  0  0  0  0  0  0  0  0  0
   -3.5510    1.9771   -5.5746 F   0  0  0  0  0  0  0  0  0  0  0  0
   -1.5042    3.5481   -3.0546 C   0  0  0  0  0  0  0  0  0  0  0  0
   -0.7699    3.1631   -1.9485 C   0  0  0  0  0  0  0  0  0  0  0  0
   -0.8748    1.8654    1.3536 N   0  0  0  0  0  0  0  0  0  0  0  0
   -0.7136    3.1721    1.9878 C   0  0  1  0  0  0  0  0  0  0  0  0
   -2.0574    3.6027    2.6387 C   0  0  1  0  0  0  0  0  0  0  0  0
   -2.5964    1.9867    3.3407 S   0  0  0  0  0  0  0  0  0  0  0  0
   -1.8598    0.9810    1.9940 C   0  0  1  0  0  0  0  0  0  0  0  0
   -2.0336    0.0662   -1.5125 H   0  0  0  0  0  0  0  0  0  0  0  0
   -3.3464    0.7545   -3.4788 H   0  0  0  0  0  0  0  0  0  0  0  0
   -1.3556    4.5263   -3.4877 H   0  0  0  0  0  0  0  0  0  0  0  0
   -0.0456    3.8394   -1.5191 H   0  0  0  0  0  0  0  0  0  0  0  0
    0.0585    3.1109    2.7547 H   0  0  0  0  0  0  0  0  0  0  0  0
   -0.4216    3.9066    1.2373 H   0  0  0  0  0  0  0  0  0  0  0  0
   -1.8991    4.3430    3.4230 H   0  0  0  0  0  0  0  0  0  0  0  0
   -2.7624    3.9653    1.8907 H   0  0  0  0  0  0  0  0  0  0  0  0
   -2.6279    0.6823    1.2806 H   0  0  0  0  0  0  0  0  0  0  0  0
   -1.3619    0.1030    2.4057 H   0  0  0  0  0  0  0  0  0  0  0  0
  1  2  2  0
  2  3  2  0
  2  4  1  0
  2 14  1  1
  4 13  2  0
  4  5  1  0
  5  6  2  0
  5 19  1  0
  6  7  1  0
  6 20  1  0
  7  8  1  0
  7 12  2  0
  8  9  1  1
  8 10  1  0
  8 11  1  0
 12 13  1  0
 12 21  1  0
 13 22  1  0
 14 18  1  0
 14 15  1  0
 15 16  1  0
 15 23  1  1
 15 24  1  0
 16 17  1  0
 16 25  1  1
 16 26  1  0
 17 18  1  0
 18 27  1  6
 18 28  1  0
M  END
$$$$
