ZINC000095455456
     RDKit          3D

 54 56  0  0  1  0  0  0  0  0999 V2000
   -0.2126    1.9917    0.4221 C   0  0  1  0  0  0  0  0  0  0  0  0
   -0.2662    0.6025   -0.2166 C   0  0  2  0  0  0  0  0  0  0  0  0
    0.0602    0.6668   -1.2546 H   0  0  0  0  0  0  0  0  0  0  0  0
   -1.7012    0.0716   -0.1646 C   0  0  1  0  0  0  0  0  0  0  0  0
   -2.1312   -0.0726    1.2985 C   0  0  1  0  0  0  0  0  0  0  0  0
   -3.5144   -0.6674    1.3612 C   0  0  0  0  0  0  0  0  0  0  0  0
   -3.9426   -1.3067    0.4237 O   0  0  0  0  0  0  0  0  0  0  0  0
   -4.2756   -0.4891    2.4590 N   0  0  0  0  0  0  0  0  0  0  0  0
   -3.8109    0.3656    3.5606 C   0  0  1  0  0  0  0  0  0  0  0  0
   -4.8739    1.4376    3.8310 C   0  0  1  0  0  0  0  0  0  0  0  0
   -6.1837    0.7813    3.9478 N   0  0  0  0  0  0  0  0  0  0  0  0
   -7.1194    1.0013    5.2962 S   0  0  1  0  0  0  0  0  0  0  0  0
   -7.9858   -0.1226    5.3712 O   0  0  0  0  0  0  0  0  0  0  0  0
   -6.2331    1.3706    6.3438 O   0  0  0  0  0  0  0  0  0  0  0  0
   -8.1458    2.4016    4.9960 C   0  0  0  0  0  0  0  0  0  0  0  0
   -7.7066    3.6667    5.3390 C   0  0  0  0  0  0  0  0  0  0  0  0
   -8.5118    4.7654    5.1034 C   0  0  0  0  0  0  0  0  0  0  0  0
   -9.7561    4.5990    4.5246 C   0  0  0  0  0  0  0  0  0  0  0  0
  -10.6341    5.7966    4.2683 C   0  0  1  0  0  0  0  0  0  0  0  0
  -10.3678    6.3057    2.9927 F   0  0  0  0  0  0  0  0  0  0  0  0
  -11.9778    5.4152    4.3469 F   0  0  0  0  0  0  0  0  0  0  0  0
  -10.3719    6.7809    5.2273 F   0  0  0  0  0  0  0  0  0  0  0  0
  -10.1947    3.3340    4.1804 C   0  0  0  0  0  0  0  0  0  0  0  0
   -9.3879    2.2358    4.4124 C   0  0  0  0  0  0  0  0  0  0  0  0
   -6.6483   -0.0735    2.8462 C   0  0  1  0  0  0  0  0  0  0  0  0
   -5.5878   -1.1410    2.5734 C   0  0  1  0  0  0  0  0  0  0  0  0
   -1.1438   -0.9942    2.0210 C   0  0  1  0  0  0  0  0  0  0  0  0
    0.2696   -0.4222    1.8845 C   0  0  1  0  0  0  0  0  0  0  0  0
    0.3148    0.5541    2.3670 H   0  0  0  0  0  0  0  0  0  0  0  0
    1.2696   -1.3682    2.5524 C   0  0  1  0  0  0  0  0  0  0  0  0
    0.5951   -0.2849    0.4996 O   0  0  0  0  0  0  0  0  0  0  0  0
    0.8092    2.3694    0.3853 H   0  0  0  0  0  0  0  0  0  0  0  0
   -0.8699    2.6683   -0.1241 H   0  0  0  0  0  0  0  0  0  0  0  0
   -0.5390    1.9272    1.4601 H   0  0  0  0  0  0  0  0  0  0  0  0
   -2.3665    0.7697   -0.6727 H   0  0  0  0  0  0  0  0  0  0  0  0
   -1.7480   -0.9005   -0.6554 H   0  0  0  0  0  0  0  0  0  0  0  0
   -2.1337    0.9072    1.7761 H   0  0  0  0  0  0  0  0  0  0  0  0
   -3.6648   -0.2387    4.4559 H   0  0  0  0  0  0  0  0  0  0  0  0
   -2.8719    0.8437    3.2816 H   0  0  0  0  0  0  0  0  0  0  0  0
   -4.6411    1.9574    4.7604 H   0  0  0  0  0  0  0  0  0  0  0  0
   -4.8938    2.1495    3.0058 H   0  0  0  0  0  0  0  0  0  0  0  0
   -6.7345    3.7967    5.7912 H   0  0  0  0  0  0  0  0  0  0  0  0
   -8.1690    5.7536    5.3720 H   0  0  0  0  0  0  0  0  0  0  0  0
  -11.1666    3.2041    3.7278 H   0  0  0  0  0  0  0  0  0  0  0  0
   -9.7306    1.2476    4.1435 H   0  0  0  0  0  0  0  0  0  0  0  0
   -7.5873   -0.5516    3.1252 H   0  0  0  0  0  0  0  0  0  0  0  0
   -6.7945    0.5309    1.9510 H   0  0  0  0  0  0  0  0  0  0  0  0
   -5.8218   -1.6600    1.6439 H   0  0  0  0  0  0  0  0  0  0  0  0
   -5.5656   -1.8538    3.3977 H   0  0  0  0  0  0  0  0  0  0  0  0
   -1.4105   -1.0584    3.0759 H   0  0  0  0  0  0  0  0  0  0  0  0
   -1.1794   -1.9879    1.5743 H   0  0  0  0  0  0  0  0  0  0  0  0
    1.2246   -2.3443    2.0695 H   0  0  0  0  0  0  0  0  0  0  0  0
    2.2759   -0.9608    2.4552 H   0  0  0  0  0  0  0  0  0  0  0  0
    1.0207   -1.4734    3.6084 H   0  0  0  0  0  0  0  0  0  0  0  0
  1  2  1  0
  1 32  1  1
  1 33  1  0
  1 34  1  0
  2  3  1  6
  2 31  1  0
  2  4  1  0
  4  5  1  0
  4 35  1  6
  4 36  1  0
  5  6  1  0
  5 27  1  0
  5 37  1  1
  6  7  2  0
  6  8  1  0
  8 26  1  0
  8  9  1  0
  9 10  1  0
  9 38  1  1
  9 39  1  0
 10 11  1  0
 10 40  1  1
 10 41  1  0
 12 11  1  6
 11 25  1  0
 12 13  2  0
 12 14  2  0
 12 15  1  0
 15 24  2  0
 15 16  1  0
 16 17  2  0
 16 42  1  0
 17 18  1  0
 17 43  1  0
 18 19  1  0
 18 23  2  0
 19 20  1  6
 19 21  1  0
 19 22  1  0
 23 24  1  0
 23 44  1  0
 24 45  1  0
 25 26  1  0
 25 46  1  1
 25 47  1  0
 26 48  1  6
 26 49  1  0
 27 28  1  0
 27 50  1  1
 27 51  1  0
 28 29  1  1
 28 30  1  0
 28 31  1  0
 30 52  1  6
 30 53  1  0
 30 54  1  0
M  END
$$$$
