ZINC000222757353
     RDKit          3D

 48 49  0  0  0  0  0  0  0  0999 V2000
    0.0013    1.4828    0.0260 C   0  0  1  0  0  0  0  0  0  0  0  0
    0.0197    0.0180    0.0252 N   0  0  0  0  0  0  0  0  0  0  0  0
    0.0474   -0.7149    1.2934 C   0  0  1  0  0  0  0  0  0  0  0  0
    0.0092   -0.8095   -1.4092 S   0  0  1  0  0  0  0  0  0  0  0  0
   -0.5149   -2.0993   -1.1245 O   0  0  0  0  0  0  0  0  0  0  0  0
   -0.5605    0.0655   -2.3731 O   0  0  0  0  0  0  0  0  0  0  0  0
    1.6886   -1.0489   -1.8855 C   0  0  0  0  0  0  0  0  0  0  0  0
    2.3263   -0.1023   -2.6658 C   0  0  0  0  0  0  0  0  0  0  0  0
    3.6430   -0.2876   -3.0406 C   0  0  0  0  0  0  0  0  0  0  0  0
    4.3255   -1.4246   -2.6330 C   0  0  0  0  0  0  0  0  0  0  0  0
    5.6209   -1.6091   -3.0001 O   0  0  0  0  0  0  0  0  0  0  0  0
    6.2607   -2.8027   -2.5441 C   0  0  1  0  0  0  0  0  0  0  0  0
    7.6815   -2.8340   -3.0455 C   0  0  0  0  0  0  0  0  0  0  0  0
    8.1046   -1.9237   -3.7263 O   0  0  0  0  0  0  0  0  0  0  0  0
    8.4821   -3.8735   -2.7374 N   0  0  0  0  0  0  0  0  0  0  0  0
    9.7689   -3.9509   -3.2816 C   0  0  0  0  0  0  0  0  0  0  0  0
   10.3096   -5.1854   -3.6165 C   0  0  0  0  0  0  0  0  0  0  0  0
   11.5800   -5.2584   -4.1534 C   0  0  0  0  0  0  0  0  0  0  0  0
   12.3135   -4.1040   -4.3572 C   0  0  0  0  0  0  0  0  0  0  0  0
   13.6996   -4.1875   -4.9429 C   0  0  1  0  0  0  0  0  0  0  0  0
   13.6164   -4.0996   -6.4450 C   0  0  0  0  0  0  0  0  0  0  0  0
   14.7406   -4.1528   -7.1865 N   0  0  0  0  0  0  0  0  0  0  0  0
   12.5378   -3.9809   -6.9867 O   0  0  0  0  0  0  0  0  0  0  0  0
   11.7777   -2.8732   -4.0253 C   0  0  0  0  0  0  0  0  0  0  0  0
   10.5057   -2.7930   -3.4933 C   0  0  0  0  0  0  0  0  0  0  0  0
    3.6835   -2.3728   -1.8498 C   0  0  0  0  0  0  0  0  0  0  0  0
    2.3682   -2.1804   -1.4736 C   0  0  0  0  0  0  0  0  0  0  0  0
    1.0241    1.8591    0.0111 H   0  0  0  0  0  0  0  0  0  0  0  0
   -0.5301    1.8399   -0.8563 H   0  0  0  0  0  0  0  0  0  0  0  0
   -0.5041    1.8394    0.9235 H   0  0  0  0  0  0  0  0  0  0  0  0
    0.0506   -0.0069    2.1222 H   0  0  0  0  0  0  0  0  0  0  0  0
   -0.8336   -1.3527    1.3639 H   0  0  0  0  0  0  0  0  0  0  0  0
    0.9460   -1.3303    1.3379 H   0  0  0  0  0  0  0  0  0  0  0  0
    1.7946    0.7827   -2.9828 H   0  0  0  0  0  0  0  0  0  0  0  0
    4.1404    0.4518   -3.6507 H   0  0  0  0  0  0  0  0  0  0  0  0
    6.2595   -2.8221   -1.4543 H   0  0  0  0  0  0  0  0  0  0  0  0
    5.7223   -3.6712   -2.9235 H   0  0  0  0  0  0  0  0  0  0  0  0
    8.1663   -4.5681   -2.1384 H   0  0  0  0  0  0  0  0  0  0  0  0
    9.7376   -6.0874   -3.4569 H   0  0  0  0  0  0  0  0  0  0  0  0
   12.0011   -6.2182   -4.4141 H   0  0  0  0  0  0  0  0  0  0  0  0
   14.3044   -3.3637   -4.5637 H   0  0  0  0  0  0  0  0  0  0  0  0
   14.1575   -5.1351   -4.6592 H   0  0  0  0  0  0  0  0  0  0  0  0
   15.6033   -4.2478   -6.7532 H   0  0  0  0  0  0  0  0  0  0  0  0
   14.6870   -4.0963   -8.1533 H   0  0  0  0  0  0  0  0  0  0  0  0
   12.3531   -1.9735   -4.1856 H   0  0  0  0  0  0  0  0  0  0  0  0
   10.0878   -1.8314   -3.2342 H   0  0  0  0  0  0  0  0  0  0  0  0
    4.2126   -3.2589   -1.5315 H   0  0  0  0  0  0  0  0  0  0  0  0
    1.8681   -2.9181   -0.8636 H   0  0  0  0  0  0  0  0  0  0  0  0
  1  2  1  0
  1 28  1  6
  1 29  1  0
  1 30  1  0
  2  3  1  0
  4  2  1  1
  3 31  1  1
  3 32  1  0
  3 33  1  0
  4  5  2  0
  4  6  2  0
  4  7  1  0
  7 27  2  0
  7  8  1  0
  8  9  2  0
  8 34  1  0
  9 10  1  0
  9 35  1  0
 10 11  1  0
 10 26  2  0
 11 12  1  0
 12 13  1  0
 12 36  1  1
 12 37  1  0
 13 14  2  0
 13 15  1  0
 15 16  1  0
 15 38  1  0
 16 25  2  0
 16 17  1  0
 17 18  2  0
 17 39  1  0
 18 19  1  0
 18 40  1  0
 19 20  1  0
 19 24  2  0
 20 21  1  0
 20 41  1  1
 20 42  1  0
 21 22  1  0
 21 23  2  0
 22 43  1  0
 22 44  1  0
 24 25  1  0
 24 45  1  0
 25 46  1  0
 26 27  1  0
 26 47  1  0
 27 48  1  0
M  END
$$$$
