ZINC000032665136
     RDKit          3D

 45 47  0  0  1  0  0  0  0  0999 V2000
    0.0021   -0.0041    0.0020 O   0  0  0  0  0  0  0  0  0  0  0  0
   -0.0172    1.4168    0.0098 S   0  0  1  0  0  0  0  0  0  0  0  0
    1.1617    2.2101    0.0028 O   0  0  0  0  0  0  0  0  0  0  0  0
   -0.9567    1.9094   -1.3970 C   0  0  0  0  0  0  0  0  0  0  0  0
   -1.8848    1.0442   -1.9458 C   0  0  0  0  0  0  0  0  0  0  0  0
   -2.6219    1.4307   -3.0496 C   0  0  0  0  0  0  0  0  0  0  0  0
   -2.4313    2.6825   -3.6042 C   0  0  0  0  0  0  0  0  0  0  0  0
   -3.2345    3.1036   -4.8078 C   0  0  1  0  0  0  0  0  0  0  0  0
   -4.4138    3.7273   -4.3864 F   0  0  0  0  0  0  0  0  0  0  0  0
   -2.4843    3.9973   -5.5796 F   0  0  0  0  0  0  0  0  0  0  0  0
   -3.5510    1.9771   -5.5746 F   0  0  0  0  0  0  0  0  0  0  0  0
   -1.5042    3.5481   -3.0546 C   0  0  0  0  0  0  0  0  0  0  0  0
   -0.7699    3.1631   -1.9485 C   0  0  0  0  0  0  0  0  0  0  0  0
   -0.8748    1.8654    1.3536 N   0  0  0  0  0  0  0  0  0  0  0  0
   -0.6844    3.1904    1.9630 C   0  0  1  0  0  0  0  0  0  0  0  0
   -2.0577    3.8473    2.1385 C   0  0  1  0  0  0  0  0  0  0  0  0
   -2.9388    2.9404    2.8863 N   0  0  0  0  0  0  0  0  0  0  0  0
   -4.2073    3.5994    3.2250 C   0  0  2  0  0  0  0  0  0  0  0  0
   -4.7164    3.9183    2.3156 H   0  0  0  0  0  0  0  0  0  0  0  0
   -3.9445    4.8122    4.1349 C   0  0  1  0  0  0  0  0  0  0  0  0
   -5.2836    5.2719    4.7450 C   0  0  1  0  0  0  0  0  0  0  0  0
   -6.3191    3.7654    4.8101 S   0  0  1  0  0  0  0  0  0  0  0  0
   -6.5137    3.3860    6.1656 O   0  0  0  0  0  0  0  0  0  0  0  0
   -7.4406    3.9274    3.9526 O   0  0  0  0  0  0  0  0  0  0  0  0
   -5.1119    2.6291    4.0277 C   0  0  1  0  0  0  0  0  0  0  0  0
   -3.1744    1.6945    2.1446 C   0  0  1  0  0  0  0  0  0  0  0  0
   -1.8513    0.9517    1.9657 C   0  0  1  0  0  0  0  0  0  0  0  0
   -2.0336    0.0662   -1.5125 H   0  0  0  0  0  0  0  0  0  0  0  0
   -3.3464    0.7545   -3.4788 H   0  0  0  0  0  0  0  0  0  0  0  0
   -1.3556    4.5263   -3.4877 H   0  0  0  0  0  0  0  0  0  0  0  0
   -0.0456    3.8394   -1.5191 H   0  0  0  0  0  0  0  0  0  0  0  0
   -0.2041    3.0807    2.9352 H   0  0  0  0  0  0  0  0  0  0  0  0
   -0.0641    3.8070    1.3124 H   0  0  0  0  0  0  0  0  0  0  0  0
   -1.9464    4.7818    2.6884 H   0  0  0  0  0  0  0  0  0  0  0  0
   -2.4915    4.0505    1.1594 H   0  0  0  0  0  0  0  0  0  0  0  0
   -3.2564    4.5303    4.9318 H   0  0  0  0  0  0  0  0  0  0  0  0
   -3.5113    5.6228    3.5490 H   0  0  0  0  0  0  0  0  0  0  0  0
   -5.1265    5.6669    5.7487 H   0  0  0  0  0  0  0  0  0  0  0  0
   -5.7503    6.0248    4.1098 H   0  0  0  0  0  0  0  0  0  0  0  0
   -5.6156    1.9282    3.3620 H   0  0  0  0  0  0  0  0  0  0  0  0
   -4.5335    2.0985    4.7841 H   0  0  0  0  0  0  0  0  0  0  0  0
   -3.8729    1.0677    2.6990 H   0  0  0  0  0  0  0  0  0  0  0  0
   -3.5927    1.9277    1.1654 H   0  0  0  0  0  0  0  0  0  0  0  0
   -2.0014    0.0870    1.3193 H   0  0  0  0  0  0  0  0  0  0  0  0
   -1.4800    0.6260    2.9374 H   0  0  0  0  0  0  0  0  0  0  0  0
  1  2  2  0
  2  3  2  0
  2  4  1  0
  2 14  1  1
  4 13  2  0
  4  5  1  0
  5  6  2  0
  5 28  1  0
  6  7  1  0
  6 29  1  0
  7  8  1  0
  7 12  2  0
  8  9  1  1
  8 10  1  0
  8 11  1  0
 12 13  1  0
 12 30  1  0
 13 31  1  0
 14 27  1  0
 14 15  1  0
 15 16  1  0
 15 32  1  1
 15 33  1  0
 16 17  1  0
 16 34  1  1
 16 35  1  0
 17 18  1  0
 17 26  1  0
 18 19  1  6
 18 25  1  0
 18 20  1  0
 20 21  1  0
 20 36  1  1
 20 37  1  0
 22 21  1  1
 21 38  1  1
 21 39  1  0
 22 23  2  0
 22 24  2  0
 22 25  1  0
 25 40  1  6
 25 41  1  0
 26 27  1  0
 26 42  1  1
 26 43  1  0
 27 44  1  6
 27 45  1  0
M  END
$$$$
