ZINC000012797173
     RDKit          3D

 55 57  0  0  1  0  0  0  0  0999 V2000
    1.0212   -0.7673   -0.8464 C   0  0  1  0  0  0  0  0  0  0  0  0
    0.0021   -0.0041    0.0020 C   0  0  1  0  0  0  0  0  0  0  0  0
   -0.0793    1.0201   -0.3620 H   0  0  0  0  0  0  0  0  0  0  0  0
   -1.3409   -0.6805   -0.0967 C   0  0  0  0  0  0  0  0  0  0  0  0
   -1.6482   -1.5384    0.7036 O   0  0  0  0  0  0  0  0  0  0  0  0
   -2.2007   -0.3322   -1.0745 N   0  0  0  0  0  0  0  0  0  0  0  0
   -3.5063   -0.9898   -1.1705 C   0  0  1  0  0  0  0  0  0  0  0  0
   -4.5379   -0.2462   -0.2972 C   0  0  1  0  0  0  0  0  0  0  0  0
   -5.2505    0.7119   -1.2838 C   0  0  1  0  0  0  0  0  0  0  0  0
   -5.3542   -0.1402   -2.5731 C   0  0  1  0  0  0  0  0  0  0  0  0
   -4.0252   -0.9224   -2.6175 C   0  0  1  0  0  0  0  0  0  0  0  0
    0.4425    0.0078    1.4034 N   0  0  0  0  0  0  0  0  0  0  0  0
    0.8362   -1.3374    1.8429 C   0  0  1  0  0  0  0  0  0  0  0  0
    1.4566   -1.2531    3.2416 C   0  0  1  0  0  0  0  0  0  0  0  0
    0.5119   -0.5600    4.1306 N   0  0  0  0  0  0  0  0  0  0  0  0
    0.0750   -1.2186    5.5859 S   0  0  1  0  0  0  0  0  0  0  0  0
   -1.1841   -0.6516    5.9210 O   0  0  0  0  0  0  0  0  0  0  0  0
    0.2921   -2.6185    5.4741 O   0  0  0  0  0  0  0  0  0  0  0  0
    1.2209   -0.6319    6.7889 C   0  0  0  0  0  0  0  0  0  0  0  0
    2.3802   -1.3408    7.0428 C   0  0  0  0  0  0  0  0  0  0  0  0
    3.2792   -0.8806    7.9866 C   0  0  0  0  0  0  0  0  0  0  0  0
    3.0191    0.2889    8.6763 C   0  0  0  0  0  0  0  0  0  0  0  0
    3.9989    0.7904    9.7056 C   0  0  1  0  0  0  0  0  0  0  0  0
    4.9293    1.6353    9.0911 F   0  0  0  0  0  0  0  0  0  0  0  0
    3.3116    1.4970   10.6983 F   0  0  0  0  0  0  0  0  0  0  0  0
    4.6655   -0.2957   10.2831 F   0  0  0  0  0  0  0  0  0  0  0  0
    1.8605    0.9985    8.4215 C   0  0  0  0  0  0  0  0  0  0  0  0
    0.9634    0.5403    7.4749 C   0  0  0  0  0  0  0  0  0  0  0  0
   -0.0340    0.7337    3.6932 C   0  0  1  0  0  0  0  0  0  0  0  0
   -0.5957    0.5711    2.2767 C   0  0  1  0  0  0  0  0  0  0  0  0
    1.1026   -1.7915   -0.4824 H   0  0  0  0  0  0  0  0  0  0  0  0
    0.6944   -0.7761   -1.8862 H   0  0  0  0  0  0  0  0  0  0  0  0
    1.9926   -0.2780   -0.7750 H   0  0  0  0  0  0  0  0  0  0  0  0
   -1.9550    0.3540   -1.7146 H   0  0  0  0  0  0  0  0  0  0  0  0
   -3.4251   -2.0287   -0.8509 H   0  0  0  0  0  0  0  0  0  0  0  0
   -5.2507   -0.9495    0.1334 H   0  0  0  0  0  0  0  0  0  0  0  0
   -4.0362    0.3190    0.4882 H   0  0  0  0  0  0  0  0  0  0  0  0
   -6.2414    0.9781   -0.9160 H   0  0  0  0  0  0  0  0  0  0  0  0
   -4.6493    1.6043   -1.4579 H   0  0  0  0  0  0  0  0  0  0  0  0
   -6.1987   -0.8264   -2.5099 H   0  0  0  0  0  0  0  0  0  0  0  0
   -5.4481    0.5023   -3.4485 H   0  0  0  0  0  0  0  0  0  0  0  0
   -3.3057   -0.4004   -3.2483 H   0  0  0  0  0  0  0  0  0  0  0  0
   -4.1968   -1.9286   -2.9999 H   0  0  0  0  0  0  0  0  0  0  0  0
   -0.0423   -1.9820    1.8729 H   0  0  0  0  0  0  0  0  0  0  0  0
    1.5660   -1.7489    1.1455 H   0  0  0  0  0  0  0  0  0  0  0  0
    1.6454   -2.2578    3.6196 H   0  0  0  0  0  0  0  0  0  0  0  0
    2.3917   -0.6949    3.1943 H   0  0  0  0  0  0  0  0  0  0  0  0
    2.5833   -2.2545    6.5039 H   0  0  0  0  0  0  0  0  0  0  0  0
    4.1845   -1.4348    8.1854 H   0  0  0  0  0  0  0  0  0  0  0  0
    1.6575    1.9124    8.9601 H   0  0  0  0  0  0  0  0  0  0  0  0
    0.0582    1.0947    7.2758 H   0  0  0  0  0  0  0  0  0  0  0  0
   -0.8308    1.0426    4.3698 H   0  0  0  0  0  0  0  0  0  0  0  0
    0.7577    1.4828    3.6893 H   0  0  0  0  0  0  0  0  0  0  0  0
   -0.9045    1.5439    1.8940 H   0  0  0  0  0  0  0  0  0  0  0  0
   -1.4543   -0.0999    2.3007 H   0  0  0  0  0  0  0  0  0  0  0  0
  1  2  1  0
  1 31  1  1
  1 32  1  0
  1 33  1  0
  2  3  1  6
  2  4  1  0
  2 12  1  0
  4  5  2  0
  4  6  1  0
  6  7  1  0
  6 34  1  0
  7 11  1  0
  7  8  1  0
  7 35  1  1
  8  9  1  0
  8 36  1  1
  8 37  1  0
  9 10  1  0
  9 38  1  1
  9 39  1  0
 10 11  1  0
 10 40  1  1
 10 41  1  0
 11 42  1  6
 11 43  1  0
 12 30  1  0
 12 13  1  0
 13 14  1  0
 13 44  1  1
 13 45  1  0
 14 15  1  0
 14 46  1  1
 14 47  1  0
 16 15  1  6
 15 29  1  0
 16 17  2  0
 16 18  2  0
 16 19  1  0
 19 28  2  0
 19 20  1  0
 20 21  2  0
 20 48  1  0
 21 22  1  0
 21 49  1  0
 22 23  1  0
 22 27  2  0
 23 24  1  6
 23 25  1  0
 23 26  1  0
 27 28  1  0
 27 50  1  0
 28 51  1  0
 29 30  1  0
 29 52  1  1
 29 53  1  0
 30 54  1  6
 30 55  1  0
M  END
$$$$
