ZINC000007703263
     RDKit          3D

 33 34  0  0  1  0  0  0  0  0999 V2000
   -0.0187    1.5258    0.0104 C   0  0  1  0  0  0  0  0  0  0  0  0
    0.0021   -0.0041    0.0020 C   0  0  2  0  0  0  0  0  0  0  0  0
   -1.0205   -0.3814    0.0098 H   0  0  0  0  0  0  0  0  0  0  0  0
    0.7106   -0.4894    1.1889 N   0  0  0  0  0  0  0  0  0  0  0  0
   -0.1388   -0.9023    2.5492 S   0  0  1  0  0  0  0  0  0  0  0  0
    0.8172   -1.3600    3.4957 O   0  0  0  0  0  0  0  0  0  0  0  0
   -1.0332    0.1718    2.8052 O   0  0  0  0  0  0  0  0  0  0  0  0
   -1.1377   -2.2943    2.1379 C   0  0  0  0  0  0  0  0  0  0  0  0
   -2.4137   -2.1065    1.6405 C   0  0  0  0  0  0  0  0  0  0  0  0
   -3.1974   -3.1986    1.3178 C   0  0  0  0  0  0  0  0  0  0  0  0
   -2.7048   -4.4784    1.4921 C   0  0  0  0  0  0  0  0  0  0  0  0
   -3.5593   -5.6690    1.1408 C   0  0  1  0  0  0  0  0  0  0  0  0
   -3.3434   -6.0198   -0.1962 F   0  0  0  0  0  0  0  0  0  0  0  0
   -3.2201   -6.7463    1.9662 F   0  0  0  0  0  0  0  0  0  0  0  0
   -4.9079   -5.3461    1.3262 F   0  0  0  0  0  0  0  0  0  0  0  0
   -1.4283   -4.6661    1.9882 C   0  0  0  0  0  0  0  0  0  0  0  0
   -0.6432   -3.5740    2.3073 C   0  0  0  0  0  0  0  0  0  0  0  0
    0.7182   -0.4975   -1.2568 C   0  0  1  0  0  0  0  0  0  0  0  0
   -0.0023   -1.5368   -2.1180 C   0  0  1  0  0  0  0  0  0  0  0  0
    0.1281   -0.0937   -2.6094 C   0  0  1  0  0  0  0  0  0  0  0  0
    1.0039    1.9031    0.0027 H   0  0  0  0  0  0  0  0  0  0  0  0
   -0.5459    1.8868   -0.8726 H   0  0  0  0  0  0  0  0  0  0  0  0
   -0.5289    1.8773    0.9072 H   0  0  0  0  0  0  0  0  0  0  0  0
    1.6773   -0.5688    1.1779 H   0  0  0  0  0  0  0  0  0  0  0  0
   -2.7985   -1.1066    1.5044 H   0  0  0  0  0  0  0  0  0  0  0  0
   -4.1946   -3.0519    0.9299 H   0  0  0  0  0  0  0  0  0  0  0  0
   -1.0433   -5.6660    2.1240 H   0  0  0  0  0  0  0  0  0  0  0  0
    0.3541   -3.7207    2.6948 H   0  0  0  0  0  0  0  0  0  0  0  0
    1.8033   -0.5699   -1.1825 H   0  0  0  0  0  0  0  0  0  0  0  0
    0.6087   -2.2933   -2.6104 H   0  0  0  0  0  0  0  0  0  0  0  0
   -0.9865   -1.8690   -1.7877 H   0  0  0  0  0  0  0  0  0  0  0  0
   -0.7703    0.5234   -2.6025 H   0  0  0  0  0  0  0  0  0  0  0  0
    0.8249    0.0991   -3.4251 H   0  0  0  0  0  0  0  0  0  0  0  0
  1  2  1  0
  1 21  1  6
  1 22  1  0
  1 23  1  0
  2  3  1  1
  2  4  1  0
  2 18  1  0
  5  4  1  6
  4 24  1  0
  5  6  2  0
  5  7  2  0
  5  8  1  0
  8 17  2  0
  8  9  1  0
  9 10  2  0
  9 25  1  0
 10 11  1  0
 10 26  1  0
 11 12  1  0
 11 16  2  0
 12 13  1  6
 12 14  1  0
 12 15  1  0
 16 17  1  0
 16 27  1  0
 17 28  1  0
 18 20  1  0
 18 19  1  0
 18 29  1  6
 19 20  1  0
 19 30  1  6
 19 31  1  0
 20 32  1  1
 20 33  1  0
M  END
$$$$
