ZINC000107540100
     RDKit          3D

 40 41  0  0  1  0  0  0  0  0999 V2000
   -0.8673    0.7708    0.3578 C   0  0  1  0  0  0  0  0  0  0  0  0
   -0.2462   -0.6273    0.3337 C   0  0  1  0  0  0  0  0  0  0  0  0
   -1.0041   -1.3666    0.5927 H   0  0  0  0  0  0  0  0  0  0  0  0
    0.2963   -0.9211   -1.0669 C   0  0  1  0  0  0  0  0  0  0  0  0
    1.3364    0.1360   -1.4450 C   0  0  1  0  0  0  0  0  0  0  0  0
    2.5021    0.0775   -0.4528 C   0  0  1  0  0  0  0  0  0  0  0  0
    1.9705    0.2145    0.9100 N   0  0  0  0  0  0  0  0  0  0  0  0
    2.5644    1.3716    1.9350 S   0  0  1  0  0  0  0  0  0  0  0  0
    2.6137    0.7779    3.2250 O   0  0  0  0  0  0  0  0  0  0  0  0
    3.7020    1.9309    1.2928 O   0  0  0  0  0  0  0  0  0  0  0  0
    1.3617    2.6563    2.0242 C   0  0  0  0  0  0  0  0  0  0  0  0
    0.7187    2.9193    3.2186 C   0  0  0  0  0  0  0  0  0  0  0  0
   -0.2251    3.9273    3.2890 C   0  0  0  0  0  0  0  0  0  0  0  0
   -0.9257    4.2132    4.5922 C   0  0  1  0  0  0  0  0  0  0  0  0
   -0.1972    5.1645    5.3144 F   0  0  0  0  0  0  0  0  0  0  0  0
   -2.2090    4.7065    4.3334 F   0  0  0  0  0  0  0  0  0  0  0  0
   -1.0212    3.0339    5.3388 F   0  0  0  0  0  0  0  0  0  0  0  0
   -0.5263    4.6732    2.1649 C   0  0  0  0  0  0  0  0  0  0  0  0
    0.1153    4.4116    0.9689 C   0  0  0  0  0  0  0  0  0  0  0  0
    1.0646    3.4064    0.8987 C   0  0  0  0  0  0  0  0  0  0  0  0
    1.6924    3.1498   -0.2697 F   0  0  0  0  0  0  0  0  0  0  0  0
    0.9011   -0.6947    1.3466 C   0  0  1  0  0  0  0  0  0  0  0  0
    1.2853   -1.7135    1.3963 H   0  0  0  0  0  0  0  0  0  0  0  0
    0.3973   -0.2685    2.7270 C   0  0  1  0  0  0  0  0  0  0  0  0
    1.2896   -0.7560    3.7311 O   0  0  0  0  0  0  0  0  0  0  0  0
   -0.1090    1.5097    0.0987 H   0  0  0  0  0  0  0  0  0  0  0  0
   -1.6827    0.8186   -0.3638 H   0  0  0  0  0  0  0  0  0  0  0  0
   -1.2525    0.9800    1.3558 H   0  0  0  0  0  0  0  0  0  0  0  0
    0.7606   -1.9072   -1.0770 H   0  0  0  0  0  0  0  0  0  0  0  0
   -0.5227   -0.8982   -1.7858 H   0  0  0  0  0  0  0  0  0  0  0  0
    1.7053   -0.0603   -2.4517 H   0  0  0  0  0  0  0  0  0  0  0  0
    0.8790    1.1249   -1.4111 H   0  0  0  0  0  0  0  0  0  0  0  0
    3.0169   -0.8783   -0.5499 H   0  0  0  0  0  0  0  0  0  0  0  0
    3.1973    0.8918   -0.6574 H   0  0  0  0  0  0  0  0  0  0  0  0
    0.9532    2.3371    4.0975 H   0  0  0  0  0  0  0  0  0  0  0  0
   -1.2634    5.4605    2.2211 H   0  0  0  0  0  0  0  0  0  0  0  0
   -0.1206    4.9941    0.0906 H   0  0  0  0  0  0  0  0  0  0  0  0
    0.3528    0.8194    2.7776 H   0  0  0  0  0  0  0  0  0  0  0  0
   -0.5977   -0.6811    2.8939 H   0  0  0  0  0  0  0  0  0  0  0  0
    1.0317   -0.5226    4.6333 H   0  0  0  0  0  0  0  0  0  0  0  0
  1  2  1  0
  1 26  1  6
  1 27  1  0
  1 28  1  0
  2  3  1  1
  2 22  1  0
  2  4  1  0
  4  5  1  0
  4 29  1  1
  4 30  1  0
  5  6  1  0
  5 31  1  6
  5 32  1  0
  6  7  1  0
  6 33  1  1
  6 34  1  0
  8  7  1  6
  7 22  1  0
  8  9  2  0
  8 10  2  0
  8 11  1  0
 11 20  2  0
 11 12  1  0
 12 13  2  0
 12 35  1  0
 13 14  1  0
 13 18  1  0
 14 15  1  1
 14 16  1  0
 14 17  1  0
 18 19  2  0
 18 36  1  0
 19 20  1  0
 19 37  1  0
 20 21  1  0
 22 23  1  1
 22 24  1  0
 24 25  1  0
 24 38  1  6
 24 39  1  0
 25 40  1  0
M  END
$$$$
