ZINC000040162275
     RDKit          3D

 54 55  0  0  0  0  0  0  0  0999 V2000
   -1.0875    0.2240   -7.4716 C   0  0  1  0  0  0  0  0  0  0  0  0
   -1.8086    1.2318   -6.5743 C   0  0  1  0  0  0  0  0  0  0  0  0
   -3.0845    0.6200   -6.0559 C   0  0  0  0  0  0  0  0  0  0  0  0
   -4.2582    0.7603   -6.7736 C   0  0  0  0  0  0  0  0  0  0  0  0
   -5.4292    0.2009   -6.3014 C   0  0  0  0  0  0  0  0  0  0  0  0
   -5.4273   -0.5034   -5.1041 C   0  0  0  0  0  0  0  0  0  0  0  0
   -6.6097   -1.0708   -4.6239 N   0  0  0  0  0  0  0  0  0  0  0  0
   -6.6058   -1.8132   -3.3609 C   0  0  1  0  0  0  0  0  0  0  0  0
   -7.9956   -2.3186   -3.0710 C   0  0  0  0  0  0  0  0  0  0  0  0
   -8.9004   -2.0820   -3.8433 O   0  0  0  0  0  0  0  0  0  0  0  0
   -8.2332   -3.0336   -1.9535 N   0  0  0  0  0  0  0  0  0  0  0  0
   -9.5397   -3.4200   -1.6346 C   0  0  0  0  0  0  0  0  0  0  0  0
   -9.9473   -3.4669   -0.3079 C   0  0  0  0  0  0  0  0  0  0  0  0
  -11.2375   -3.8488    0.0035 C   0  0  0  0  0  0  0  0  0  0  0  0
  -12.1230   -4.1846   -1.0042 C   0  0  0  0  0  0  0  0  0  0  0  0
  -13.7680   -4.6718   -0.6027 S   0  0  1  0  0  0  0  0  0  0  0  0
  -14.2330   -5.4530   -1.6948 O   0  0  0  0  0  0  0  0  0  0  0  0
  -13.7296   -5.1505    0.7347 O   0  0  0  0  0  0  0  0  0  0  0  0
  -14.6944   -3.2993   -0.5816 N   0  0  0  0  0  0  0  0  0  0  0  0
  -15.3597   -2.8458   -1.8055 C   0  0  1  0  0  0  0  0  0  0  0  0
  -16.7950   -3.3751   -1.8320 C   0  0  1  0  0  0  0  0  0  0  0  0
  -14.8487   -2.5387    0.6609 C   0  0  1  0  0  0  0  0  0  0  0  0
  -13.8205   -1.4062    0.6966 C   0  0  1  0  0  0  0  0  0  0  0  0
  -11.7204   -4.1384   -2.3263 C   0  0  0  0  0  0  0  0  0  0  0  0
  -10.4332   -3.7519   -2.6446 C   0  0  0  0  0  0  0  0  0  0  0  0
   -4.2465   -0.6424   -4.3856 C   0  0  0  0  0  0  0  0  0  0  0  0
   -3.0779   -0.0852   -4.8664 C   0  0  0  0  0  0  0  0  0  0  0  0
   -0.1647    0.6666   -7.8466 H   0  0  0  0  0  0  0  0  0  0  0  0
   -0.8535   -0.6720   -6.8967 H   0  0  0  0  0  0  0  0  0  0  0  0
   -1.7308   -0.0405   -8.3109 H   0  0  0  0  0  0  0  0  0  0  0  0
   -1.1653    1.4964   -5.7350 H   0  0  0  0  0  0  0  0  0  0  0  0
   -2.0427    2.1278   -7.1492 H   0  0  0  0  0  0  0  0  0  0  0  0
   -4.2591    1.3083   -7.7043 H   0  0  0  0  0  0  0  0  0  0  0  0
   -6.3456    0.3111   -6.8623 H   0  0  0  0  0  0  0  0  0  0  0  0
   -7.4336   -0.9733   -5.1266 H   0  0  0  0  0  0  0  0  0  0  0  0
   -5.9208   -2.6576   -3.4379 H   0  0  0  0  0  0  0  0  0  0  0  0
   -6.2826   -1.1556   -2.5539 H   0  0  0  0  0  0  0  0  0  0  0  0
   -7.4985   -3.2803   -1.3702 H   0  0  0  0  0  0  0  0  0  0  0  0
   -9.2560   -3.2055    0.4796 H   0  0  0  0  0  0  0  0  0  0  0  0
  -11.5551   -3.8855    1.0350 H   0  0  0  0  0  0  0  0  0  0  0  0
  -15.3738   -1.7561   -1.8290 H   0  0  0  0  0  0  0  0  0  0  0  0
  -14.8181   -3.2209   -2.6739 H   0  0  0  0  0  0  0  0  0  0  0  0
  -17.2900   -3.0376   -2.7426 H   0  0  0  0  0  0  0  0  0  0  0  0
  -16.7809   -4.4647   -1.8085 H   0  0  0  0  0  0  0  0  0  0  0  0
  -17.3366   -3.0000   -0.9636 H   0  0  0  0  0  0  0  0  0  0  0  0
  -15.8535   -2.1188    0.7075 H   0  0  0  0  0  0  0  0  0  0  0  0
  -14.6911   -3.1994    1.5133 H   0  0  0  0  0  0  0  0  0  0  0  0
  -13.9353   -0.8402    1.6210 H   0  0  0  0  0  0  0  0  0  0  0  0
  -12.8157   -1.8261    0.6500 H   0  0  0  0  0  0  0  0  0  0  0  0
  -13.9781   -0.7454   -0.1559 H   0  0  0  0  0  0  0  0  0  0  0  0
  -12.4143   -4.4013   -3.1110 H   0  0  0  0  0  0  0  0  0  0  0  0
  -10.1193   -3.7160   -3.6774 H   0  0  0  0  0  0  0  0  0  0  0  0
   -4.2416   -1.1890   -3.4542 H   0  0  0  0  0  0  0  0  0  0  0  0
   -2.1595   -0.1929   -4.3083 H   0  0  0  0  0  0  0  0  0  0  0  0
  1  2  1  0
  1 28  1  6
  1 29  1  0
  1 30  1  0
  2  3  1  0
  2 31  1  1
  2 32  1  0
  3 27  2  0
  3  4  1  0
  4  5  2  0
  4 33  1  0
  5  6  1  0
  5 34  1  0
  6  7  1  0
  6 26  2  0
  7  8  1  0
  7 35  1  0
  8  9  1  0
  8 36  1  6
  8 37  1  0
  9 10  2  0
  9 11  1  0
 11 12  1  0
 11 38  1  0
 12 25  2  0
 12 13  1  0
 13 14  2  0
 13 39  1  0
 14 15  1  0
 14 40  1  0
 15 16  1  0
 15 24  2  0
 16 17  2  0
 16 18  2  0
 16 19  1  1
 19 20  1  0
 19 22  1  0
 20 21  1  0
 20 41  1  6
 20 42  1  0
 21 43  1  6
 21 44  1  0
 21 45  1  0
 22 23  1  0
 22 46  1  1
 22 47  1  0
 23 48  1  1
 23 49  1  0
 23 50  1  0
 24 25  1  0
 24 51  1  0
 25 52  1  0
 26 27  1  0
 26 53  1  0
 27 54  1  0
M  END
$$$$
