ZINC000001367848
     RDKit          3D

 57 60  0  0  0  0  0  0  0  0999 V2000
   -0.2496    0.2341   -0.1702 O   0  0  0  0  0  0  0  0  0  0  0  0
   -0.0991    1.4073    0.0980 C   0  0  0  0  0  0  0  0  0  0  0  0
    1.2676    2.0342   -0.0037 C   0  0  1  0  0  0  0  0  0  0  0  0
    2.3182    0.9539    0.0128 C   0  0  0  0  0  0  0  0  0  0  0  0
    2.3939    0.0475   -1.0281 C   0  0  0  0  0  0  0  0  0  0  0  0
    3.3577   -0.9434   -1.0131 C   0  0  0  0  0  0  0  0  0  0  0  0
    4.2460   -1.0276    0.0428 C   0  0  0  0  0  0  0  0  0  0  0  0
    4.1708   -0.1206    1.0833 C   0  0  0  0  0  0  0  0  0  0  0  0
    3.2098    0.8729    1.0661 C   0  0  0  0  0  0  0  0  0  0  0  0
    1.3684    2.8134   -1.2896 C   0  0  0  0  0  0  0  0  0  0  0  0
    1.9407    4.0717   -1.2922 C   0  0  0  0  0  0  0  0  0  0  0  0
    2.0332    4.7865   -2.4718 C   0  0  0  0  0  0  0  0  0  0  0  0
    1.5538    4.2428   -3.6488 C   0  0  0  0  0  0  0  0  0  0  0  0
    0.9823    2.9842   -3.6464 C   0  0  0  0  0  0  0  0  0  0  0  0
    0.8937    2.2676   -2.4676 C   0  0  0  0  0  0  0  0  0  0  0  0
   -1.1551    2.1517    0.4816 N   0  0  0  0  0  0  0  0  0  0  0  0
   -1.0161    3.6014    0.6789 C   0  0  1  0  0  0  0  0  0  0  0  0
   -2.0567    4.3165   -0.1918 C   0  0  1  0  0  0  0  0  0  0  0  0
   -3.3680    3.6931    0.0362 N   0  0  0  0  0  0  0  0  0  0  0  0
   -4.6657    4.6080    0.5065 S   0  0  1  0  0  0  0  0  0  0  0  0
   -5.5661    3.7223    1.1578 O   0  0  0  0  0  0  0  0  0  0  0  0
   -4.1335    5.7703    1.1270 O   0  0  0  0  0  0  0  0  0  0  0  0
   -5.4776    5.1538   -0.9590 C   0  0  0  0  0  0  0  0  0  0  0  0
   -5.1060    6.3461   -1.5518 C   0  0  0  0  0  0  0  0  0  0  0  0
   -5.7429    6.7743   -2.7015 C   0  0  0  0  0  0  0  0  0  0  0  0
   -6.7510    6.0100   -3.2587 C   0  0  0  0  0  0  0  0  0  0  0  0
   -7.4457    6.4771   -4.5118 C   0  0  1  0  0  0  0  0  0  0  0  0
   -6.7702    5.9810   -5.6320 F   0  0  0  0  0  0  0  0  0  0  0  0
   -8.7638    6.0083   -4.5167 F   0  0  0  0  0  0  0  0  0  0  0  0
   -7.4480    7.8755   -4.5501 F   0  0  0  0  0  0  0  0  0  0  0  0
   -7.1217    4.8171   -2.6667 C   0  0  0  0  0  0  0  0  0  0  0  0
   -6.4821    4.3870   -1.5191 C   0  0  0  0  0  0  0  0  0  0  0  0
   -3.5069    2.2434   -0.1610 C   0  0  1  0  0  0  0  0  0  0  0  0
   -2.4677    1.5292    0.7042 C   0  0  1  0  0  0  0  0  0  0  0  0
    1.4232    2.7053    0.8410 H   0  0  0  0  0  0  0  0  0  0  0  0
    1.6999    0.1133   -1.8530 H   0  0  0  0  0  0  0  0  0  0  0  0
    3.4164   -1.6520   -1.8260 H   0  0  0  0  0  0  0  0  0  0  0  0
    4.9985   -1.8022    0.0549 H   0  0  0  0  0  0  0  0  0  0  0  0
    4.8646   -0.1866    1.9083 H   0  0  0  0  0  0  0  0  0  0  0  0
    3.1511    1.5815    1.8790 H   0  0  0  0  0  0  0  0  0  0  0  0
    2.3153    4.4965   -0.3726 H   0  0  0  0  0  0  0  0  0  0  0  0
    2.4797    5.7699   -2.4737 H   0  0  0  0  0  0  0  0  0  0  0  0
    1.6254    4.8016   -4.5703 H   0  0  0  0  0  0  0  0  0  0  0  0
    0.6074    2.5596   -4.5659 H   0  0  0  0  0  0  0  0  0  0  0  0
    0.4472    1.2842   -2.4657 H   0  0  0  0  0  0  0  0  0  0  0  0
   -1.1862    3.8459    1.7274 H   0  0  0  0  0  0  0  0  0  0  0  0
   -0.0148    3.9162    0.3851 H   0  0  0  0  0  0  0  0  0  0  0  0
   -2.1003    5.3707    0.0817 H   0  0  0  0  0  0  0  0  0  0  0  0
   -1.7834    4.2196   -1.2425 H   0  0  0  0  0  0  0  0  0  0  0  0
   -4.3184    6.9431   -1.1164 H   0  0  0  0  0  0  0  0  0  0  0  0
   -5.4531    7.7061   -3.1642 H   0  0  0  0  0  0  0  0  0  0  0  0
   -7.9090    4.2198   -3.1022 H   0  0  0  0  0  0  0  0  0  0  0  0
   -6.7717    3.4550   -1.0566 H   0  0  0  0  0  0  0  0  0  0  0  0
   -4.5083    1.9286    0.1328 H   0  0  0  0  0  0  0  0  0  0  0  0
   -3.3368    1.9990   -1.2096 H   0  0  0  0  0  0  0  0  0  0  0  0
   -2.4252    0.4752    0.4297 H   0  0  0  0  0  0  0  0  0  0  0  0
   -2.7386    1.6254    1.7556 H   0  0  0  0  0  0  0  0  0  0  0  0
  1  2  2  0
  2  3  1  0
  2 16  1  0
  3  4  1  0
  3 10  1  0
  3 35  1  1
  4  9  2  0
  4  5  1  0
  5  6  2  0
  5 36  1  0
  6  7  1  0
  6 37  1  0
  7  8  2  0
  7 38  1  0
  8  9  1  0
  8 39  1  0
  9 40  1  0
 10 15  2  0
 10 11  1  0
 11 12  2  0
 11 41  1  0
 12 13  1  0
 12 42  1  0
 13 14  2  0
 13 43  1  0
 14 15  1  0
 14 44  1  0
 15 45  1  0
 16 34  1  0
 16 17  1  0
 17 18  1  0
 17 46  1  1
 17 47  1  0
 18 19  1  0
 18 48  1  1
 18 49  1  0
 20 19  1  6
 19 33  1  0
 20 21  2  0
 20 22  2  0
 20 23  1  0
 23 32  2  0
 23 24  1  0
 24 25  2  0
 24 50  1  0
 25 26  1  0
 25 51  1  0
 26 27  1  0
 26 31  2  0
 27 28  1  6
 27 29  1  0
 27 30  1  0
 31 32  1  0
 31 52  1  0
 32 53  1  0
 33 34  1  0
 33 54  1  1
 33 55  1  0
 34 56  1  6
 34 57  1  0
M  END
$$$$
