ZINC000408612539
     RDKit          3D

 69 71  0  0  1  0  0  0  0  0999 V2000
   -0.0173    1.4248    0.0099 C   0  0  1  0  0  0  0  0  0  0  0  0
    0.0021   -0.0041    0.0020 O   0  0  0  0  0  0  0  0  0  0  0  0
    0.6058   -0.6071   -1.0557 C   0  0  0  0  0  0  0  0  0  0  0  0
    1.1729    0.1605   -2.0622 C   0  0  0  0  0  0  0  0  0  0  0  0
    1.7865   -0.4550   -3.1363 C   0  0  0  0  0  0  0  0  0  0  0  0
    1.8352   -1.8346   -3.2086 C   0  0  0  0  0  0  0  0  0  0  0  0
    2.6179   -2.6165   -4.5799 S   0  0  1  0  0  0  0  0  0  0  0  0
    2.0536   -3.9171   -4.6761 O   0  0  0  0  0  0  0  0  0  0  0  0
    2.5918   -1.6772   -5.6459 O   0  0  0  0  0  0  0  0  0  0  0  0
    4.2113   -2.8264   -4.1806 N   0  0  0  0  0  0  0  0  0  0  0  0
    4.6429   -4.0563   -3.5117 C   0  0  1  0  0  0  0  0  0  0  0  0
    5.1513   -5.0530   -4.5552 C   0  0  1  0  0  0  0  0  0  0  0  0
    5.5953   -6.3181   -3.8671 C   0  0  0  0  0  0  0  0  0  0  0  0
    6.9022   -6.4482   -3.4360 C   0  0  0  0  0  0  0  0  0  0  0  0
    7.3095   -7.6087   -2.8048 C   0  0  0  0  0  0  0  0  0  0  0  0
    6.4097   -8.6388   -2.6043 C   0  0  0  0  0  0  0  0  0  0  0  0
    5.1025   -8.5082   -3.0347 C   0  0  0  0  0  0  0  0  0  0  0  0
    4.6942   -7.3461   -3.6620 C   0  0  0  0  0  0  0  0  0  0  0  0
    5.1893   -1.7823   -4.4963 C   0  0  1  0  0  0  0  0  0  0  0  0
    5.3782   -0.8915   -3.2955 C   0  0  0  0  0  0  0  0  0  0  0  0
    4.7571   -1.1075   -2.2765 O   0  0  0  0  0  0  0  0  0  0  0  0
    6.2374    0.1453   -3.3541 N   0  0  0  0  0  0  0  0  0  0  0  0
    6.4211    1.0113   -2.1869 C   0  0  2  0  0  0  0  0  0  0  0  0
    6.3425    0.4162   -1.2770 H   0  0  0  0  0  0  0  0  0  0  0  0
    5.3419    2.0959   -2.1817 C   0  0  1  0  0  0  0  0  0  0  0  0
    7.8023    1.6664   -2.2502 C   0  0  1  0  0  0  0  0  0  0  0  0
    8.8832    0.5903   -2.1299 C   0  0  1  0  0  0  0  0  0  0  0  0
   10.2436    1.2355   -2.1922 C   0  0  0  0  0  0  0  0  0  0  0  0
   10.8709    1.4093   -3.4117 C   0  0  0  0  0  0  0  0  0  0  0  0
   12.1188    2.0012   -3.4689 C   0  0  0  0  0  0  0  0  0  0  0  0
   12.7392    2.4197   -2.3067 C   0  0  0  0  0  0  0  0  0  0  0  0
   12.1115    2.2468   -1.0873 C   0  0  0  0  0  0  0  0  0  0  0  0
   10.8617    1.6588   -1.0305 C   0  0  0  0  0  0  0  0  0  0  0  0
    1.2709   -2.6022   -2.2062 C   0  0  0  0  0  0  0  0  0  0  0  0
    0.6609   -1.9917   -1.1277 C   0  0  0  0  0  0  0  0  0  0  0  0
    0.0467   -2.8287   -0.0354 C   0  0  1  0  0  0  0  0  0  0  0  0
    1.0053    1.8021    0.0021 H   0  0  0  0  0  0  0  0  0  0  0  0
   -0.5445    1.7859   -0.8732 H   0  0  0  0  0  0  0  0  0  0  0  0
   -0.5275    1.7763    0.9067 H   0  0  0  0  0  0  0  0  0  0  0  0
    1.1346    1.2384   -2.0066 H   0  0  0  0  0  0  0  0  0  0  0  0
    2.2283    0.1423   -3.9203 H   0  0  0  0  0  0  0  0  0  0  0  0
    5.4436   -3.8258   -2.8090 H   0  0  0  0  0  0  0  0  0  0  0  0
    3.8011   -4.4917   -2.9733 H   0  0  0  0  0  0  0  0  0  0  0  0
    4.3506   -5.2834   -5.2580 H   0  0  0  0  0  0  0  0  0  0  0  0
    5.9931   -4.6176   -5.0937 H   0  0  0  0  0  0  0  0  0  0  0  0
    7.6052   -5.6434   -3.5926 H   0  0  0  0  0  0  0  0  0  0  0  0
    8.3307   -7.7106   -2.4686 H   0  0  0  0  0  0  0  0  0  0  0  0
    6.7281   -9.5457   -2.1118 H   0  0  0  0  0  0  0  0  0  0  0  0
    4.3996   -9.3132   -2.8784 H   0  0  0  0  0  0  0  0  0  0  0  0
    3.6729   -7.2441   -3.9982 H   0  0  0  0  0  0  0  0  0  0  0  0
    6.1410   -2.2437   -4.7598 H   0  0  0  0  0  0  0  0  0  0  0  0
    4.8285   -1.1885   -5.3361 H   0  0  0  0  0  0  0  0  0  0  0  0
    6.7341    0.3180   -4.1692 H   0  0  0  0  0  0  0  0  0  0  0  0
    5.4786    2.7402   -1.3132 H   0  0  0  0  0  0  0  0  0  0  0  0
    5.4204    2.6909   -3.0915 H   0  0  0  0  0  0  0  0  0  0  0  0
    4.3579    1.6291   -2.1366 H   0  0  0  0  0  0  0  0  0  0  0  0
    7.9135    2.1885   -3.2005 H   0  0  0  0  0  0  0  0  0  0  0  0
    7.9049    2.3777   -1.4307 H   0  0  0  0  0  0  0  0  0  0  0  0
    8.7719    0.0682   -1.1795 H   0  0  0  0  0  0  0  0  0  0  0  0
    8.7805   -0.1210   -2.9494 H   0  0  0  0  0  0  0  0  0  0  0  0
   10.3862    1.0824   -4.3198 H   0  0  0  0  0  0  0  0  0  0  0  0
   12.6092    2.1364   -4.4216 H   0  0  0  0  0  0  0  0  0  0  0  0
   13.7145    2.8815   -2.3513 H   0  0  0  0  0  0  0  0  0  0  0  0
   12.5964    2.5734   -0.1792 H   0  0  0  0  0  0  0  0  0  0  0  0
   10.3713    1.5236   -0.0778 H   0  0  0  0  0  0  0  0  0  0  0  0
    1.3105   -3.6799   -2.2647 H   0  0  0  0  0  0  0  0  0  0  0  0
    0.7936   -3.0283    0.7329 H   0  0  0  0  0  0  0  0  0  0  0  0
   -0.7932   -2.2915    0.4052 H   0  0  0  0  0  0  0  0  0  0  0  0
   -0.3047   -3.7717   -0.4543 H   0  0  0  0  0  0  0  0  0  0  0  0
  1  2  1  0
  1 37  1  6
  1 38  1  0
  1 39  1  0
  2  3  1  0
  3 35  2  0
  3  4  1  0
  4  5  2  0
  4 40  1  0
  5  6  1  0
  5 41  1  0
  6  7  1  0
  6 34  2  0
  7  8  2  0
  7  9  2  0
  7 10  1  1
 10 11  1  0
 10 19  1  0
 11 12  1  0
 11 42  1  1
 11 43  1  0
 12 13  1  0
 12 44  1  6
 12 45  1  0
 13 18  2  0
 13 14  1  0
 14 15  2  0
 14 46  1  0
 15 16  1  0
 15 47  1  0
 16 17  2  0
 16 48  1  0
 17 18  1  0
 17 49  1  0
 18 50  1  0
 19 20  1  0
 19 51  1  6
 19 52  1  0
 20 21  2  0
 20 22  1  0
 22 23  1  0
 22 53  1  0
 23 24  1  1
 23 25  1  0
 23 26  1  0
 25 54  1  1
 25 55  1  0
 25 56  1  0
 26 27  1  0
 26 57  1  6
 26 58  1  0
 27 28  1  0
 27 59  1  1
 27 60  1  0
 28 33  2  0
 28 29  1  0
 29 30  2  0
 29 61  1  0
 30 31  1  0
 30 62  1  0
 31 32  2  0
 31 63  1  0
 32 33  1  0
 32 64  1  0
 33 65  1  0
 34 35  1  0
 34 66  1  0
 35 36  1  0
 36 67  1  1
 36 68  1  0
 36 69  1  0
M  END
$$$$
