ZINC000072462892
     RDKit          3D

 41 43  0  0  1  0  0  0  0  0999 V2000
   -0.0178    1.4608    0.0101 C   0  0  1  0  0  0  0  0  0  0  0  0
    0.0021   -0.0041    0.0020 N   0  0  0  0  0  0  0  0  0  0  0  0
    0.0062   -0.7004   -1.1609 C   0  0  0  0  0  0  0  0  0  0  0  0
   -0.0091   -0.1365   -2.2345 O   0  0  0  0  0  0  0  0  0  0  0  0
    0.0312   -2.2088   -1.0645 C   0  0  1  0  0  0  0  0  0  0  0  0
    0.2816   -2.6212   -2.0418 H   0  0  0  0  0  0  0  0  0  0  0  0
    1.0781   -2.6547   -0.0587 C   0  0  1  0  0  0  0  0  0  0  0  0
    1.0569   -1.8504    1.2272 C   0  0  1  0  0  0  0  0  0  0  0  0
    0.0244   -0.7720    1.2534 C   0  0  2  0  0  0  0  0  0  0  0  0
    0.2446   -0.0995    2.0824 H   0  0  0  0  0  0  0  0  0  0  0  0
   -1.3736   -1.3553    1.4569 C   0  0  1  0  0  0  0  0  0  0  0  0
   -1.4871   -2.6223    0.7301 N   0  0  0  0  0  0  0  0  0  0  0  0
   -1.8070   -4.0202    1.5583 S   0  0  1  0  0  0  0  0  0  0  0  0
   -1.3238   -5.0847    0.7505 O   0  0  0  0  0  0  0  0  0  0  0  0
   -1.3772   -3.8020    2.8950 O   0  0  0  0  0  0  0  0  0  0  0  0
   -3.5588   -4.1994    1.6219 C   0  0  0  0  0  0  0  0  0  0  0  0
   -4.2721   -3.6505    2.6710 C   0  0  0  0  0  0  0  0  0  0  0  0
   -5.6463   -3.7911    2.7209 C   0  0  0  0  0  0  0  0  0  0  0  0
   -6.3073   -4.4802    1.7214 C   0  0  0  0  0  0  0  0  0  0  0  0
   -7.8055   -4.6339    1.7761 C   0  0  1  0  0  0  0  0  0  0  0  0
   -8.4089   -3.5603    1.1124 F   0  0  0  0  0  0  0  0  0  0  0  0
   -8.1742   -5.8324    1.1556 F   0  0  0  0  0  0  0  0  0  0  0  0
   -8.2241   -4.6518    3.1109 F   0  0  0  0  0  0  0  0  0  0  0  0
   -5.5942   -5.0280    0.6715 C   0  0  0  0  0  0  0  0  0  0  0  0
   -4.2203   -4.8841    0.6197 C   0  0  0  0  0  0  0  0  0  0  0  0
   -1.3508   -2.7164   -0.6513 C   0  0  1  0  0  0  0  0  0  0  0  0
    1.0048    1.8381    0.0023 H   0  0  0  0  0  0  0  0  0  0  0  0
   -0.5450    1.8219   -0.8730 H   0  0  0  0  0  0  0  0  0  0  0  0
   -0.5280    1.8123    0.9069 H   0  0  0  0  0  0  0  0  0  0  0  0
    0.9070   -3.7039    0.1822 H   0  0  0  0  0  0  0  0  0  0  0  0
    2.0637   -2.5595   -0.5145 H   0  0  0  0  0  0  0  0  0  0  0  0
    0.8851   -2.5309    2.0611 H   0  0  0  0  0  0  0  0  0  0  0  0
    2.0311   -1.3800    1.3601 H   0  0  0  0  0  0  0  0  0  0  0  0
   -1.5430   -1.5298    2.5194 H   0  0  0  0  0  0  0  0  0  0  0  0
   -2.1181   -0.6534    1.0813 H   0  0  0  0  0  0  0  0  0  0  0  0
   -3.7556   -3.1120    3.4519 H   0  0  0  0  0  0  0  0  0  0  0  0
   -6.2035   -3.3628    3.5410 H   0  0  0  0  0  0  0  0  0  0  0  0
   -6.1107   -5.5661   -0.1095 H   0  0  0  0  0  0  0  0  0  0  0  0
   -3.6631   -5.3120   -0.2006 H   0  0  0  0  0  0  0  0  0  0  0  0
   -2.1035   -2.0931   -1.1340 H   0  0  0  0  0  0  0  0  0  0  0  0
   -1.4850   -3.7531   -0.9600 H   0  0  0  0  0  0  0  0  0  0  0  0
  1  2  1  0
  1 27  1  6
  1 28  1  0
  1 29  1  0
  2  9  1  0
  2  3  1  0
  3  4  2  0
  3  5  1  0
  5  6  1  6
  5 26  1  0
  5  7  1  0
  7  8  1  0
  7 30  1  1
  7 31  1  0
  8  9  1  0
  8 32  1  1
  8 33  1  0
  9 10  1  1
  9 11  1  0
 11 12  1  0
 11 34  1  1
 11 35  1  0
 13 12  1  6
 12 26  1  0
 13 14  2  0
 13 15  2  0
 13 16  1  0
 16 25  2  0
 16 17  1  0
 17 18  2  0
 17 36  1  0
 18 19  1  0
 18 37  1  0
 19 20  1  0
 19 24  2  0
 20 21  1  6
 20 22  1  0
 20 23  1  0
 24 25  1  0
 24 38  1  0
 25 39  1  0
 26 40  1  6
 26 41  1  0
M  END
$$$$
