ZINC000012438637
     RDKit          3D

 41 42  0  0  1  0  0  0  0  0999 V2000
   -0.0173    1.4248    0.0099 C   0  0  1  0  0  0  0  0  0  0  0  0
    0.0021   -0.0041    0.0020 O   0  0  0  0  0  0  0  0  0  0  0  0
    0.6518   -0.5703   -1.1379 C   0  0  1  0  0  0  0  0  0  0  0  0
    0.6137   -2.0738   -1.0425 C   0  0  0  0  0  0  0  0  0  0  0  0
    0.0824   -2.6078   -0.0920 O   0  0  0  0  0  0  0  0  0  0  0  0
    1.1699   -2.8249   -2.0135 N   0  0  0  0  0  0  0  0  0  0  0  0
    1.8224   -2.1924   -3.1680 C   0  0  1  0  0  0  0  0  0  0  0  0
    3.2429   -2.7510   -3.2987 C   0  0  1  0  0  0  0  0  0  0  0  0
    3.1816   -4.2784   -3.3703 C   0  0  1  0  0  0  0  0  0  0  0  0
    2.5635   -4.8268   -2.0821 C   0  0  2  0  0  0  0  0  0  0  0  0
    3.1600   -4.5070   -1.2276 H   0  0  0  0  0  0  0  0  0  0  0  0
    2.5339   -6.3324   -2.1396 C   0  0  0  0  0  0  0  0  0  0  0  0
    2.5208   -6.8980   -3.2121 O   0  0  0  0  0  0  0  0  0  0  0  0
    2.5210   -7.1163   -0.8942 C   0  0  0  0  0  0  0  0  0  0  0  0
    2.5304   -6.4675    0.3448 C   0  0  0  0  0  0  0  0  0  0  0  0
    2.5182   -7.2090    1.5072 C   0  0  0  0  0  0  0  0  0  0  0  0
    2.4973   -8.5917    1.4502 C   0  0  0  0  0  0  0  0  0  0  0  0
    2.4841   -9.3944    2.7256 C   0  0  1  0  0  0  0  0  0  0  0  0
    1.1612   -9.6228    3.1192 F   0  0  0  0  0  0  0  0  0  0  0  0
    3.1253  -10.6194    2.5122 F   0  0  0  0  0  0  0  0  0  0  0  0
    3.1537   -8.6862    3.7292 F   0  0  0  0  0  0  0  0  0  0  0  0
    2.4879   -9.2411    0.2280 C   0  0  0  0  0  0  0  0  0  0  0  0
    2.4936   -8.5137   -0.9434 C   0  0  0  0  0  0  0  0  0  0  0  0
    1.1407   -4.2918   -1.9346 C   0  0  1  0  0  0  0  0  0  0  0  0
    1.0053    1.8021    0.0021 H   0  0  0  0  0  0  0  0  0  0  0  0
   -0.5445    1.7859   -0.8732 H   0  0  0  0  0  0  0  0  0  0  0  0
   -0.5275    1.7763    0.9067 H   0  0  0  0  0  0  0  0  0  0  0  0
    0.1385   -0.2506   -2.0447 H   0  0  0  0  0  0  0  0  0  0  0  0
    1.6883   -0.2344   -1.1694 H   0  0  0  0  0  0  0  0  0  0  0  0
    1.2578   -2.4142   -4.0736 H   0  0  0  0  0  0  0  0  0  0  0  0
    1.8663   -1.1138   -3.0173 H   0  0  0  0  0  0  0  0  0  0  0  0
    3.7045   -2.3624   -4.2065 H   0  0  0  0  0  0  0  0  0  0  0  0
    3.8330   -2.4507   -2.4328 H   0  0  0  0  0  0  0  0  0  0  0  0
    2.5709   -4.5778   -4.2221 H   0  0  0  0  0  0  0  0  0  0  0  0
    4.1891   -4.6772   -3.4881 H   0  0  0  0  0  0  0  0  0  0  0  0
    2.5474   -5.3886    0.3909 H   0  0  0  0  0  0  0  0  0  0  0  0
    2.5254   -6.7095    2.4648 H   0  0  0  0  0  0  0  0  0  0  0  0
    2.4716  -10.3204    0.1917 H   0  0  0  0  0  0  0  0  0  0  0  0
    2.4862   -9.0218   -1.8963 H   0  0  0  0  0  0  0  0  0  0  0  0
    0.7327   -4.5991   -0.9717 H   0  0  0  0  0  0  0  0  0  0  0  0
    0.5180   -4.6828   -2.7392 H   0  0  0  0  0  0  0  0  0  0  0  0
  1  2  1  0
  1 25  1  6
  1 26  1  0
  1 27  1  0
  2  3  1  0
  3  4  1  0
  3 28  1  6
  3 29  1  0
  4  5  2  0
  4  6  1  0
  6 24  1  0
  6  7  1  0
  7  8  1  0
  7 30  1  6
  7 31  1  0
  8  9  1  0
  8 32  1  6
  8 33  1  0
  9 10  1  0
  9 34  1  6
  9 35  1  0
 10 11  1  1
 10 12  1  0
 10 24  1  0
 12 13  2  0
 12 14  1  0
 14 23  2  0
 14 15  1  0
 15 16  2  0
 15 36  1  0
 16 17  1  0
 16 37  1  0
 17 18  1  0
 17 22  2  0
 18 19  1  1
 18 20  1  0
 18 21  1  0
 22 23  1  0
 22 38  1  0
 23 39  1  0
 24 40  1  1
 24 41  1  0
M  END
$$$$
