ZINC000408926338
     RDKit          3D

 56 57  0  0  0  0  0  0  0  0999 V2000
   -0.0173    1.4248    0.0099 C   0  0  1  0  0  0  0  0  0  0  0  0
    0.0021   -0.0041    0.0020 O   0  0  0  0  0  0  0  0  0  0  0  0
   -1.2953   -0.6030    0.0112 C   0  0  1  0  0  0  0  0  0  0  0  0
   -1.1538   -2.1264    0.0017 C   0  0  1  0  0  0  0  0  0  0  0  0
   -2.5429   -2.7677    0.0115 C   0  0  1  0  0  0  0  0  0  0  0  0
   -2.4075   -4.2264    0.0023 N   0  0  0  0  0  0  0  0  0  0  0  0
   -3.5073   -5.0054    0.0087 C   0  0  0  0  0  0  0  0  0  0  0  0
   -4.6092   -4.4987    0.0219 O   0  0  0  0  0  0  0  0  0  0  0  0
   -3.3680   -6.5059   -0.0007 C   0  0  1  0  0  0  0  0  0  0  0  0
   -4.6980   -7.1199    0.0087 N   0  0  0  0  0  0  0  0  0  0  0  0
   -5.4215   -7.3197   -1.2495 C   0  0  1  0  0  0  0  0  0  0  0  0
   -4.9853   -8.6176   -1.8791 C   0  0  0  0  0  0  0  0  0  0  0  0
   -3.9149   -8.6362   -2.7536 C   0  0  0  0  0  0  0  0  0  0  0  0
   -3.5148   -9.8266   -3.3311 C   0  0  0  0  0  0  0  0  0  0  0  0
   -4.1848  -10.9986   -3.0337 C   0  0  0  0  0  0  0  0  0  0  0  0
   -3.7490  -12.2964   -3.6637 C   0  0  1  0  0  0  0  0  0  0  0  0
   -5.2544  -10.9803   -2.1581 C   0  0  0  0  0  0  0  0  0  0  0  0
   -5.6520   -9.7904   -1.5777 C   0  0  0  0  0  0  0  0  0  0  0  0
   -5.3838   -7.5881    1.4415 S   0  0  1  0  0  0  0  0  0  0  0  0
   -6.2213   -8.6963    1.1423 O   0  0  0  0  0  0  0  0  0  0  0  0
   -4.3286   -7.6455    2.3915 O   0  0  0  0  0  0  0  0  0  0  0  0
   -6.4497   -6.2845    1.9601 C   0  0  0  0  0  0  0  0  0  0  0  0
   -5.9599   -5.2669    2.7572 C   0  0  0  0  0  0  0  0  0  0  0  0
   -6.7962   -4.2442    3.1641 C   0  0  0  0  0  0  0  0  0  0  0  0
   -8.1222   -4.2388    2.7735 C   0  0  0  0  0  0  0  0  0  0  0  0
   -9.0341   -3.1242    3.2175 C   0  0  1  0  0  0  0  0  0  0  0  0
   -8.6117   -5.2558    1.9752 C   0  0  0  0  0  0  0  0  0  0  0  0
   -7.7745   -6.2764    1.5652 C   0  0  0  0  0  0  0  0  0  0  0  0
    1.0053    1.8021    0.0021 H   0  0  0  0  0  0  0  0  0  0  0  0
   -0.5445    1.7859   -0.8732 H   0  0  0  0  0  0  0  0  0  0  0  0
   -0.5275    1.7763    0.9067 H   0  0  0  0  0  0  0  0  0  0  0  0
   -1.8320   -0.2936    0.9080 H   0  0  0  0  0  0  0  0  0  0  0  0
   -1.8490   -0.2840   -0.8718 H   0  0  0  0  0  0  0  0  0  0  0  0
   -0.6171   -2.4359   -0.8952 H   0  0  0  0  0  0  0  0  0  0  0  0
   -0.6001   -2.4454    0.8847 H   0  0  0  0  0  0  0  0  0  0  0  0
   -3.0796   -2.4582    0.9083 H   0  0  0  0  0  0  0  0  0  0  0  0
   -3.0966   -2.4487   -0.8716 H   0  0  0  0  0  0  0  0  0  0  0  0
   -1.5262   -4.6316   -0.0082 H   0  0  0  0  0  0  0  0  0  0  0  0
   -2.8312   -6.8153   -0.8975 H   0  0  0  0  0  0  0  0  0  0  0  0
   -2.8143   -6.8249    0.8823 H   0  0  0  0  0  0  0  0  0  0  0  0
   -6.4927   -7.3541   -1.0511 H   0  0  0  0  0  0  0  0  0  0  0  0
   -5.2040   -6.4953   -1.9285 H   0  0  0  0  0  0  0  0  0  0  0  0
   -3.3915   -7.7205   -2.9859 H   0  0  0  0  0  0  0  0  0  0  0  0
   -2.6790   -9.8411   -4.0149 H   0  0  0  0  0  0  0  0  0  0  0  0
   -3.0035  -12.7759   -3.0293 H   0  0  0  0  0  0  0  0  0  0  0  0
   -4.6108  -12.9548   -3.7729 H   0  0  0  0  0  0  0  0  0  0  0  0
   -3.3174  -12.0972   -4.6446 H   0  0  0  0  0  0  0  0  0  0  0  0
   -5.7776  -11.8960   -1.9255 H   0  0  0  0  0  0  0  0  0  0  0  0
   -6.4876   -9.7761   -0.8936 H   0  0  0  0  0  0  0  0  0  0  0  0
   -4.9240   -5.2710    3.0624 H   0  0  0  0  0  0  0  0  0  0  0  0
   -6.4137   -3.4495    3.7874 H   0  0  0  0  0  0  0  0  0  0  0  0
   -9.0046   -2.3172    2.4853 H   0  0  0  0  0  0  0  0  0  0  0  0
  -10.0535   -3.5006    3.3023 H   0  0  0  0  0  0  0  0  0  0  0  0
   -8.7037   -2.7484    4.1858 H   0  0  0  0  0  0  0  0  0  0  0  0
   -9.6476   -5.2514    1.6698 H   0  0  0  0  0  0  0  0  0  0  0  0
   -8.1569   -7.0709    0.9415 H   0  0  0  0  0  0  0  0  0  0  0  0
  1  2  1  0
  1 29  1  6
  1 30  1  0
  1 31  1  0
  2  3  1  0
  3  4  1  0
  3 32  1  1
  3 33  1  0
  4  5  1  0
  4 34  1  6
  4 35  1  0
  5  6  1  0
  5 36  1  1
  5 37  1  0
  6  7  1  0
  6 38  1  0
  7  8  2  0
  7  9  1  0
  9 10  1  0
  9 39  1  6
  9 40  1  0
 10 11  1  0
 19 10  1  6
 11 12  1  0
 11 41  1  1
 11 42  1  0
 12 18  2  0
 12 13  1  0
 13 14  2  0
 13 43  1  0
 14 15  1  0
 14 44  1  0
 15 16  1  0
 15 17  2  0
 16 45  1  1
 16 46  1  0
 16 47  1  0
 17 18  1  0
 17 48  1  0
 18 49  1  0
 19 20  2  0
 19 21  2  0
 19 22  1  0
 22 28  2  0
 22 23  1  0
 23 24  2  0
 23 50  1  0
 24 25  1  0
 24 51  1  0
 25 26  1  0
 25 27  2  0
 26 52  1  6
 26 53  1  0
 26 54  1  0
 27 28  1  0
 27 55  1  0
 28 56  1  0
M  END
$$$$
