ZINC000028208431
     RDKit          3D

 55 56  0  0  1  0  0  0  0  0999 V2000
   -0.0127    1.0858    0.0080 C   0  0  2  0  0  0  0  0  0  0  0  0
   -0.7288    1.5792    1.2668 C   0  0  1  0  0  0  0  0  0  0  0  0
   -0.2017    1.2182    2.1499 H   0  0  0  0  0  0  0  0  0  0  0  0
   -0.7496    3.1091    1.2752 C   0  0  1  0  0  0  0  0  0  0  0  0
   -1.3536    3.6037    2.5911 C   0  0  1  0  0  0  0  0  0  0  0  0
   -1.3740    5.1105    2.5994 C   0  0  0  0  0  0  0  0  0  0  0  0
   -0.2961    5.8136    3.1040 C   0  0  0  0  0  0  0  0  0  0  0  0
   -0.3128    7.1959    3.1071 C   0  0  0  0  0  0  0  0  0  0  0  0
   -1.4118    7.8749    2.6153 C   0  0  0  0  0  0  0  0  0  0  0  0
   -2.4920    7.1718    2.1155 C   0  0  0  0  0  0  0  0  0  0  0  0
   -2.4730    5.7896    2.1075 C   0  0  0  0  0  0  0  0  0  0  0  0
   -2.1032    1.0722    1.2772 N   0  0  0  0  0  0  0  0  0  0  0  0
   -2.3647   -0.1562    1.7664 C   0  0  0  0  0  0  0  0  0  0  0  0
   -1.4621   -0.8417    2.1980 O   0  0  0  0  0  0  0  0  0  0  0  0
   -3.7785   -0.6778    1.7771 C   0  0  1  0  0  0  0  0  0  0  0  0
   -3.7987   -2.0841    2.3794 C   0  0  1  0  0  0  0  0  0  0  0  0
   -5.2125   -2.6057    2.3901 C   0  0  0  0  0  0  0  0  0  0  0  0
   -6.0238   -2.3810    3.4865 C   0  0  0  0  0  0  0  0  0  0  0  0
   -7.3222   -2.8553    3.4943 C   0  0  0  0  0  0  0  0  0  0  0  0
   -7.8061   -3.5630    2.4099 C   0  0  0  0  0  0  0  0  0  0  0  0
   -9.4591   -4.1728    2.4224 S   0  0  1  0  0  0  0  0  0  0  0  0
  -10.1805   -3.3581    3.3362 O   0  0  0  0  0  0  0  0  0  0  0  0
   -9.8365   -4.3370    1.0623 O   0  0  0  0  0  0  0  0  0  0  0  0
   -9.4166   -5.6910    3.0824 N   0  0  0  0  0  0  0  0  0  0  0  0
   -9.5723   -5.8657    4.5286 C   0  0  1  0  0  0  0  0  0  0  0  0
   -9.2231   -6.8595    2.2201 C   0  0  1  0  0  0  0  0  0  0  0  0
   -6.9929   -3.7926    1.3159 C   0  0  0  0  0  0  0  0  0  0  0  0
   -5.6962   -3.3138    1.3059 C   0  0  0  0  0  0  0  0  0  0  0  0
    0.0021   -0.0041    0.0020 H   0  0  0  0  0  0  0  0  0  0  0  0
    1.0099    1.4631    0.0003 H   0  0  0  0  0  0  0  0  0  0  0  0
   -0.5399    1.4469   -0.8751 H   0  0  0  0  0  0  0  0  0  0  0  0
    0.2682    3.4868    1.1780 H   0  0  0  0  0  0  0  0  0  0  0  0
   -1.3519    3.4689    0.4410 H   0  0  0  0  0  0  0  0  0  0  0  0
   -2.3714    3.2260    2.6883 H   0  0  0  0  0  0  0  0  0  0  0  0
   -0.7512    3.2439    3.4253 H   0  0  0  0  0  0  0  0  0  0  0  0
    0.5607    5.2830    3.4923 H   0  0  0  0  0  0  0  0  0  0  0  0
    0.5309    7.7452    3.4980 H   0  0  0  0  0  0  0  0  0  0  0  0
   -1.4268    8.9548    2.6219 H   0  0  0  0  0  0  0  0  0  0  0  0
   -3.3508    7.7023    1.7316 H   0  0  0  0  0  0  0  0  0  0  0  0
   -3.3171    5.2402    1.7174 H   0  0  0  0  0  0  0  0  0  0  0  0
   -2.8251    1.6204    0.9320 H   0  0  0  0  0  0  0  0  0  0  0  0
   -4.4050   -0.0170    2.3761 H   0  0  0  0  0  0  0  0  0  0  0  0
   -4.1601   -0.7140    0.7568 H   0  0  0  0  0  0  0  0  0  0  0  0
   -3.1721   -2.7450    1.7804 H   0  0  0  0  0  0  0  0  0  0  0  0
   -3.4170   -2.0479    3.3998 H   0  0  0  0  0  0  0  0  0  0  0  0
   -5.6445   -1.8316    4.3355 H   0  0  0  0  0  0  0  0  0  0  0  0
   -7.9574   -2.6762    4.3492 H   0  0  0  0  0  0  0  0  0  0  0  0
  -10.6285   -5.9894    4.7679 H   0  0  0  0  0  0  0  0  0  0  0  0
   -9.0211   -6.7497    4.8492 H   0  0  0  0  0  0  0  0  0  0  0  0
   -9.1832   -4.9879    5.0445 H   0  0  0  0  0  0  0  0  0  0  0  0
   -9.1273   -6.5346    1.1840 H   0  0  0  0  0  0  0  0  0  0  0  0
   -8.3179   -7.3870    2.5206 H   0  0  0  0  0  0  0  0  0  0  0  0
  -10.0803   -7.5262    2.3140 H   0  0  0  0  0  0  0  0  0  0  0  0
   -7.3708   -4.3458    0.4688 H   0  0  0  0  0  0  0  0  0  0  0  0
   -5.0609   -3.4932    0.4511 H   0  0  0  0  0  0  0  0  0  0  0  0
  1  2  1  0
  1 29  1  1
  1 30  1  0
  1 31  1  0
  2  3  1  1
  2  4  1  0
  2 12  1  0
  4  5  1  0
  4 32  1  6
  4 33  1  0
  5  6  1  0
  5 34  1  1
  5 35  1  0
  6 11  2  0
  6  7  1  0
  7  8  2  0
  7 36  1  0
  8  9  1  0
  8 37  1  0
  9 10  2  0
  9 38  1  0
 10 11  1  0
 10 39  1  0
 11 40  1  0
 12 13  1  0
 12 41  1  0
 13 14  2  0
 13 15  1  0
 15 16  1  0
 15 42  1  1
 15 43  1  0
 16 17  1  0
 16 44  1  6
 16 45  1  0
 17 28  2  0
 17 18  1  0
 18 19  2  0
 18 46  1  0
 19 20  1  0
 19 47  1  0
 20 21  1  0
 20 27  2  0
 21 22  2  0
 21 23  2  0
 21 24  1  1
 24 25  1  0
 24 26  1  0
 25 48  1  6
 25 49  1  0
 25 50  1  0
 26 51  1  6
 26 52  1  0
 26 53  1  0
 27 28  1  0
 27 54  1  0
 28 55  1  0
M  END
$$$$
