ZINC000058025868
     RDKit          3D

 37 37  0  0  1  0  0  0  0  0999 V2000
   -1.3369   -2.8669   -1.4614 C   0  0  1  0  0  0  0  0  0  0  0  0
   -2.0315   -2.3653   -0.1938 C   0  0  1  0  0  0  0  0  0  0  0  0
   -1.5939   -3.2178    0.9989 C   0  0  1  0  0  0  0  0  0  0  0  0
   -1.5759   -0.6343    0.1007 S   0  0  1  0  0  0  0  0  0  0  0  0
   -2.2516   -0.1801    1.2653 O   0  0  0  0  0  0  0  0  0  0  0  0
   -0.1612   -0.5202    0.0304 O   0  0  0  0  0  0  0  0  0  0  0  0
   -2.2950    0.1935   -1.3445 C   0  0  2  0  0  0  0  0  0  0  0  0
   -1.9082   -0.2641   -2.2551 H   0  0  0  0  0  0  0  0  0  0  0  0
   -1.9214    1.6770   -1.3208 C   0  0  1  0  0  0  0  0  0  0  0  0
   -3.7949    0.0526   -1.3094 C   0  0  0  0  0  0  0  0  0  0  0  0
   -4.3634   -0.1186   -0.2517 O   0  0  0  0  0  0  0  0  0  0  0  0
   -4.5048    0.1169   -2.4532 N   0  0  0  0  0  0  0  0  0  0  0  0
   -5.9033    0.1052   -2.4104 C   0  0  0  0  0  0  0  0  0  0  0  0
   -6.6250   -0.5266   -3.4146 C   0  0  0  0  0  0  0  0  0  0  0  0
   -8.0054   -0.5363   -3.3694 C   0  0  0  0  0  0  0  0  0  0  0  0
   -8.6688    0.0826   -2.3259 C   0  0  0  0  0  0  0  0  0  0  0  0
  -10.1751    0.0706   -2.2800 C   0  0  1  0  0  0  0  0  0  0  0  0
  -10.6112   -1.0589   -1.5790 F   0  0  0  0  0  0  0  0  0  0  0  0
  -10.6312    1.2249   -1.6345 F   0  0  0  0  0  0  0  0  0  0  0  0
  -10.6811    0.0344   -3.5837 F   0  0  0  0  0  0  0  0  0  0  0  0
   -7.9531    0.7123   -1.3241 C   0  0  0  0  0  0  0  0  0  0  0  0
   -6.5724    0.7206   -1.3605 C   0  0  0  0  0  0  0  0  0  0  0  0
   -1.5386   -3.9304   -1.5897 H   0  0  0  0  0  0  0  0  0  0  0  0
   -1.7152   -2.3187   -2.3242 H   0  0  0  0  0  0  0  0  0  0  0  0
   -0.2620   -2.7090   -1.3734 H   0  0  0  0  0  0  0  0  0  0  0  0
   -3.1118   -2.4407   -0.3174 H   0  0  0  0  0  0  0  0  0  0  0  0
   -0.5135   -3.1424    1.1225 H   0  0  0  0  0  0  0  0  0  0  0  0
   -2.0887   -2.8604    1.9020 H   0  0  0  0  0  0  0  0  0  0  0  0
   -1.8676   -4.2579    0.8220 H   0  0  0  0  0  0  0  0  0  0  0  0
   -2.2777    2.1560   -2.2327 H   0  0  0  0  0  0  0  0  0  0  0  0
   -2.3823    2.1540   -0.4558 H   0  0  0  0  0  0  0  0  0  0  0  0
   -0.8379    1.7779   -1.2569 H   0  0  0  0  0  0  0  0  0  0  0  0
   -4.0461    0.1712   -3.3062 H   0  0  0  0  0  0  0  0  0  0  0  0
   -6.1075   -1.0096   -4.2302 H   0  0  0  0  0  0  0  0  0  0  0  0
   -8.5672   -1.0275   -4.1500 H   0  0  0  0  0  0  0  0  0  0  0  0
   -8.4742    1.1948   -0.5105 H   0  0  0  0  0  0  0  0  0  0  0  0
   -6.0140    1.2125   -0.5779 H   0  0  0  0  0  0  0  0  0  0  0  0
  1  2  1  0
  1 23  1  6
  1 24  1  0
  1 25  1  0
  2  3  1  0
  2  4  1  0
  2 26  1  6
  3 27  1  1
  3 28  1  0
  3 29  1  0
  4  5  2  0
  4  6  2  0
  4  7  1  6
  7  8  1  6
  7  9  1  0
  7 10  1  0
  9 30  1  6
  9 31  1  0
  9 32  1  0
 10 11  2  0
 10 12  1  0
 12 13  1  0
 12 33  1  0
 13 22  2  0
 13 14  1  0
 14 15  2  0
 14 34  1  0
 15 16  1  0
 15 35  1  0
 16 17  1  0
 16 21  2  0
 17 18  1  1
 17 19  1  0
 17 20  1  0
 21 22  1  0
 21 36  1  0
 22 37  1  0
M  END
$$$$
