ZINC000000916038
     RDKit          3D

 57 59  0  0  1  0  0  0  0  0999 V2000
   -3.4427   -8.8423    0.6366 C   0  0  1  0  0  0  0  0  0  0  0  0
   -2.5317   -7.6545    0.4625 C   0  0  0  0  0  0  0  0  0  0  0  0
   -2.2433   -6.8405    1.5420 C   0  0  0  0  0  0  0  0  0  0  0  0
   -1.4077   -5.7510    1.3823 C   0  0  0  0  0  0  0  0  0  0  0  0
   -0.8600   -5.4757    0.1433 C   0  0  0  0  0  0  0  0  0  0  0  0
    0.0506   -4.2877   -0.0309 C   0  0  1  0  0  0  0  0  0  0  0  0
    1.4455   -4.7207    0.0830 N   0  0  0  0  0  0  0  0  0  0  0  0
    2.0613   -4.8676    1.4042 C   0  0  1  0  0  0  0  0  0  0  0  0
    1.7435   -6.2329    1.9575 C   0  0  0  0  0  0  0  0  0  0  0  0
    1.0690   -7.0069    1.3119 O   0  0  0  0  0  0  0  0  0  0  0  0
    2.2088   -6.5937    3.1699 N   0  0  0  0  0  0  0  0  0  0  0  0
    1.8998   -7.9208    3.7078 C   0  0  1  0  0  0  0  0  0  0  0  0
    2.5430   -8.0743    5.0876 C   0  0  1  0  0  0  0  0  0  0  0  0
    2.1686   -7.3078    5.7661 H   0  0  0  0  0  0  0  0  0  0  0  0
    2.2573   -9.4854    5.6601 C   0  0  1  0  0  0  0  0  0  0  0  0
    3.4504   -9.6530    6.6402 C   0  0  1  0  0  0  0  0  0  0  0  0
    4.5832   -8.9010    5.9089 C   0  0  1  0  0  0  0  0  0  0  0  0
    3.9733   -7.9921    4.9829 O   0  0  0  0  0  0  0  0  0  0  0  0
    2.3262   -5.0441   -1.2816 S   0  0  1  0  0  0  0  0  0  0  0  0
    3.2845   -6.0280   -0.9169 O   0  0  0  0  0  0  0  0  0  0  0  0
    1.3864   -5.2262   -2.3318 O   0  0  0  0  0  0  0  0  0  0  0  0
    3.2345   -3.5861   -1.6739 C   0  0  0  0  0  0  0  0  0  0  0  0
    2.7216   -2.6745   -2.5776 C   0  0  0  0  0  0  0  0  0  0  0  0
    3.4342   -1.5306   -2.8854 C   0  0  0  0  0  0  0  0  0  0  0  0
    4.6595   -1.2982   -2.2891 C   0  0  0  0  0  0  0  0  0  0  0  0
    5.4366   -0.0515   -2.6249 C   0  0  1  0  0  0  0  0  0  0  0  0
    5.1718   -2.2092   -1.3843 C   0  0  0  0  0  0  0  0  0  0  0  0
    4.4574   -3.3512   -1.0737 C   0  0  0  0  0  0  0  0  0  0  0  0
   -1.1472   -6.2905   -0.9358 C   0  0  0  0  0  0  0  0  0  0  0  0
   -1.9799   -7.3822   -0.7753 C   0  0  0  0  0  0  0  0  0  0  0  0
   -2.8518   -9.7163    0.9106 H   0  0  0  0  0  0  0  0  0  0  0  0
   -4.1672   -8.6323    1.4234 H   0  0  0  0  0  0  0  0  0  0  0  0
   -3.9680   -9.0374   -0.2983 H   0  0  0  0  0  0  0  0  0  0  0  0
   -2.6712   -7.0556    2.5100 H   0  0  0  0  0  0  0  0  0  0  0  0
   -1.1830   -5.1147    2.2255 H   0  0  0  0  0  0  0  0  0  0  0  0
   -0.1134   -3.8452   -1.0134 H   0  0  0  0  0  0  0  0  0  0  0  0
   -0.1646   -3.5487    0.7410 H   0  0  0  0  0  0  0  0  0  0  0  0
    3.1418   -4.7538    1.3161 H   0  0  0  0  0  0  0  0  0  0  0  0
    1.6690   -4.1033    2.0750 H   0  0  0  0  0  0  0  0  0  0  0  0
    2.7483   -5.9746    3.6862 H   0  0  0  0  0  0  0  0  0  0  0  0
    0.8194   -8.0346    3.7959 H   0  0  0  0  0  0  0  0  0  0  0  0
    2.2922   -8.6851    3.0370 H   0  0  0  0  0  0  0  0  0  0  0  0
    1.3060   -9.5085    6.1917 H   0  0  0  0  0  0  0  0  0  0  0  0
    2.2849  -10.2410    4.8749 H   0  0  0  0  0  0  0  0  0  0  0  0
    3.2319   -9.1862    7.6007 H   0  0  0  0  0  0  0  0  0  0  0  0
    3.7028  -10.7056    6.7677 H   0  0  0  0  0  0  0  0  0  0  0  0
    5.1833   -8.3453    6.6294 H   0  0  0  0  0  0  0  0  0  0  0  0
    5.2119   -9.6113    5.3719 H   0  0  0  0  0  0  0  0  0  0  0  0
    1.7643   -2.8560   -3.0435 H   0  0  0  0  0  0  0  0  0  0  0  0
    3.0338   -0.8187   -3.5919 H   0  0  0  0  0  0  0  0  0  0  0  0
    5.1560    0.7475   -1.9386 H   0  0  0  0  0  0  0  0  0  0  0  0
    6.5039   -0.2524   -2.5318 H   0  0  0  0  0  0  0  0  0  0  0  0
    5.2120    0.2522   -3.6474 H   0  0  0  0  0  0  0  0  0  0  0  0
    6.1289   -2.0275   -0.9182 H   0  0  0  0  0  0  0  0  0  0  0  0
    4.8576   -4.0629   -0.3668 H   0  0  0  0  0  0  0  0  0  0  0  0
   -0.7190   -6.0756   -1.9038 H   0  0  0  0  0  0  0  0  0  0  0  0
   -2.2043   -8.0188   -1.6184 H   0  0  0  0  0  0  0  0  0  0  0  0
  1  2  1  0
  1 31  1  1
  1 32  1  0
  1 33  1  0
  2 30  2  0
  2  3  1  0
  3  4  2  0
  3 34  1  0
  4  5  1  0
  4 35  1  0
  5  6  1  0
  5 29  2  0
  6  7  1  0
  6 36  1  6
  6 37  1  0
  7  8  1  0
 19  7  1  1
  8  9  1  0
  8 38  1  6
  8 39  1  0
  9 10  2  0
  9 11  1  0
 11 12  1  0
 11 40  1  0
 12 13  1  0
 12 41  1  1
 12 42  1  0
 13 14  1  1
 13 18  1  0
 13 15  1  0
 15 16  1  0
 15 43  1  1
 15 44  1  0
 16 17  1  0
 16 45  1  1
 16 46  1  0
 17 18  1  0
 17 47  1  1
 17 48  1  0
 19 20  2  0
 19 21  2  0
 19 22  1  0
 22 28  2  0
 22 23  1  0
 23 24  2  0
 23 49  1  0
 24 25  1  0
 24 50  1  0
 25 26  1  0
 25 27  2  0
 26 51  1  1
 26 52  1  0
 26 53  1  0
 27 28  1  0
 27 54  1  0
 28 55  1  0
 29 30  1  0
 29 56  1  0
 30 57  1  0
M  END
$$$$
