ZINC000088059570
     RDKit          3D

 36 37  0  0  1  0  0  0  0  0999 V2000
   -0.0187    1.5258    0.0104 C   0  0  1  0  0  0  0  0  0  0  0  0
    0.0021   -0.0041    0.0020 C   0  0  2  0  0  0  0  0  0  0  0  0
    0.5122   -0.3557   -0.8947 H   0  0  0  0  0  0  0  0  0  0  0  0
   -1.4354   -0.5346    0.0133 C   0  0  1  0  0  0  0  0  0  0  0  0
   -1.3907   -1.9998    0.1368 N   0  0  0  0  0  0  0  0  0  0  0  0
   -2.2437   -2.9682   -0.9010 S   0  0  1  0  0  0  0  0  0  0  0  0
   -2.4476   -4.2006   -0.2237 O   0  0  0  0  0  0  0  0  0  0  0  0
   -3.3080   -2.1742   -1.4073 O   0  0  0  0  0  0  0  0  0  0  0  0
   -1.1913   -3.3207   -2.2695 C   0  0  0  0  0  0  0  0  0  0  0  0
   -1.1864   -2.4852   -3.3708 C   0  0  0  0  0  0  0  0  0  0  0  0
   -0.3608   -2.7618   -4.4445 C   0  0  0  0  0  0  0  0  0  0  0  0
    0.4603   -3.8735   -4.4166 C   0  0  0  0  0  0  0  0  0  0  0  0
    1.3601   -4.1752   -5.5872 C   0  0  1  0  0  0  0  0  0  0  0  0
    2.5961   -3.5475   -5.3993 F   0  0  0  0  0  0  0  0  0  0  0  0
    1.5494   -5.5579   -5.6856 F   0  0  0  0  0  0  0  0  0  0  0  0
    0.7700   -3.7005   -6.7635 F   0  0  0  0  0  0  0  0  0  0  0  0
    0.4564   -4.7081   -3.3147 C   0  0  0  0  0  0  0  0  0  0  0  0
   -0.3664   -4.4295   -2.2394 C   0  0  0  0  0  0  0  0  0  0  0  0
   -0.5663   -2.5804    1.2080 C   0  0  1  0  0  0  0  0  0  0  0  0
    0.8301   -1.9533    1.1403 C   0  0  1  0  0  0  0  0  0  0  0  0
    0.7119   -0.4906    1.1918 N   0  0  1  0  0  0  0  0  0  0  0  0
    1.6334   -0.0809    1.2233 H   0  0  0  0  0  0  0  0  0  0  0  0
    0.1985   -0.2248    2.0187 H   0  0  0  0  0  0  0  0  0  0  0  0
    1.0039    1.9031    0.0027 H   0  0  0  0  0  0  0  0  0  0  0  0
   -0.5459    1.8868   -0.8726 H   0  0  0  0  0  0  0  0  0  0  0  0
   -0.5289    1.8773    0.9072 H   0  0  0  0  0  0  0  0  0  0  0  0
   -1.9751   -0.1119    0.8607 H   0  0  0  0  0  0  0  0  0  0  0  0
   -1.9343   -0.2604   -0.9162 H   0  0  0  0  0  0  0  0  0  0  0  0
   -1.8280   -1.6167   -3.3926 H   0  0  0  0  0  0  0  0  0  0  0  0
   -0.3575   -2.1095   -5.3052 H   0  0  0  0  0  0  0  0  0  0  0  0
    1.0982   -5.5765   -3.2927 H   0  0  0  0  0  0  0  0  0  0  0  0
   -0.3694   -5.0816   -1.3785 H   0  0  0  0  0  0  0  0  0  0  0  0
   -1.0184   -2.3643    2.1760 H   0  0  0  0  0  0  0  0  0  0  0  0
   -0.4907   -3.6588    1.0683 H   0  0  0  0  0  0  0  0  0  0  0  0
    1.4254   -2.2998    1.9850 H   0  0  0  0  0  0  0  0  0  0  0  0
    1.3152   -2.2461    0.2092 H   0  0  0  0  0  0  0  0  0  0  0  0
  1  2  1  0
  1 24  1  6
  1 25  1  0
  1 26  1  0
  2  3  1  6
  2 21  1  0
  2  4  1  0
  4  5  1  0
  4 27  1  1
  4 28  1  0
  6  5  1  1
  5 19  1  0
  6  7  2  0
  6  8  2  0
  6  9  1  0
  9 18  2  0
  9 10  1  0
 10 11  2  0
 10 29  1  0
 11 12  1  0
 11 30  1  0
 12 13  1  0
 12 17  2  0
 13 14  1  1
 13 15  1  0
 13 16  1  0
 17 18  1  0
 17 31  1  0
 18 32  1  0
 19 20  1  0
 19 33  1  1
 19 34  1  0
 20 21  1  0
 20 35  1  1
 20 36  1  0
 21 22  1  1
 21 23  1  0
M  CHG  1  21   1
M  END
$$$$
