ZINC000012648728
     RDKit          3D

 57 59  0  0  1  0  0  0  0  0999 V2000
   -0.0187    1.5258    0.0104 C   0  0  1  0  0  0  0  0  0  0  0  0
    0.0021   -0.0041    0.0020 C   0  0  1  0  0  0  0  0  0  0  0  0
   -1.0203   -0.3818    0.0098 H   0  0  0  0  0  0  0  0  0  0  0  0
    0.7197   -0.4983   -1.2561 C   0  0  1  0  0  0  0  0  0  0  0  0
    2.1447    0.0591   -1.2848 C   0  0  2  0  0  0  0  0  0  0  0  0
    2.1098    1.1484   -1.2667 H   0  0  0  0  0  0  0  0  0  0  0  0
    2.8502   -0.4081   -2.5595 C   0  0  1  0  0  0  0  0  0  0  0  0
    2.9119   -0.4483   -0.0597 C   0  0  1  0  0  0  0  0  0  0  0  0
    2.1531   -0.1028    1.1500 N   0  0  0  0  0  0  0  0  0  0  0  0
    2.8710    0.7328    2.3864 S   0  0  1  0  0  0  0  0  0  0  0  0
    2.1258    0.4336    3.5587 O   0  0  0  0  0  0  0  0  0  0  0  0
    4.2677    0.4971    2.2721 O   0  0  0  0  0  0  0  0  0  0  0  0
    2.6281    2.4484    2.0667 C   0  0  0  0  0  0  0  0  0  0  0  0
    3.5587    3.1481    1.3192 C   0  0  0  0  0  0  0  0  0  0  0  0
    3.3748    4.4915    1.0651 C   0  0  0  0  0  0  0  0  0  0  0  0
    2.2463    5.1449    1.5642 C   0  0  0  0  0  0  0  0  0  0  0  0
    2.0424    6.5832    1.2958 C   0  0  0  0  0  0  0  0  0  0  0  0
    2.8574    7.2001    0.6395 O   0  0  0  0  0  0  0  0  0  0  0  0
    0.9525    7.2106    1.7787 O   0  0  0  0  0  0  0  0  0  0  0  0
    0.8173    8.6242    1.4758 C   0  0  1  0  0  0  0  0  0  0  0  0
   -0.4522    9.1512    2.0937 C   0  0  0  0  0  0  0  0  0  0  0  0
   -1.1719    8.4087    2.7269 O   0  0  0  0  0  0  0  0  0  0  0  0
   -0.8183   10.5670    1.9286 C   0  0  0  0  0  0  0  0  0  0  0  0
    0.0061   11.4251    1.1943 C   0  0  0  0  0  0  0  0  0  0  0  0
   -0.3439   12.7506    1.0442 C   0  0  0  0  0  0  0  0  0  0  0  0
   -1.5072   13.2320    1.6184 C   0  0  0  0  0  0  0  0  0  0  0  0
   -2.3286   12.3889    2.3468 C   0  0  0  0  0  0  0  0  0  0  0  0
   -3.5933   12.9236    2.9678 C   0  0  1  0  0  0  0  0  0  0  0  0
   -3.7185   14.2853    2.6720 F   0  0  0  0  0  0  0  0  0  0  0  0
   -4.6946   12.2314    2.4529 F   0  0  0  0  0  0  0  0  0  0  0  0
   -3.5408   12.7507    4.3551 F   0  0  0  0  0  0  0  0  0  0  0  0
   -1.9957   11.0599    2.5007 C   0  0  0  0  0  0  0  0  0  0  0  0
    1.3111    4.4327    2.3178 C   0  0  0  0  0  0  0  0  0  0  0  0
    1.5047    3.0884    2.5596 C   0  0  0  0  0  0  0  0  0  0  0  0
    0.7443   -0.5122    1.2421 C   0  0  1  0  0  0  0  0  0  0  0  0
    1.0039    1.9031    0.0027 H   0  0  0  0  0  0  0  0  0  0  0  0
   -0.5459    1.8868   -0.8726 H   0  0  0  0  0  0  0  0  0  0  0  0
   -0.5289    1.8773    0.9072 H   0  0  0  0  0  0  0  0  0  0  0  0
    0.7559   -1.5876   -1.2493 H   0  0  0  0  0  0  0  0  0  0  0  0
    0.1791   -0.1587   -2.1396 H   0  0  0  0  0  0  0  0  0  0  0  0
    2.3022   -0.0488   -3.4306 H   0  0  0  0  0  0  0  0  0  0  0  0
    3.8651   -0.0109   -2.5795 H   0  0  0  0  0  0  0  0  0  0  0  0
    2.8860   -1.4974   -2.5766 H   0  0  0  0  0  0  0  0  0  0  0  0
    3.0263   -1.5305   -0.1227 H   0  0  0  0  0  0  0  0  0  0  0  0
    3.8938    0.0234   -0.0223 H   0  0  0  0  0  0  0  0  0  0  0  0
    4.4314    2.6415    0.9341 H   0  0  0  0  0  0  0  0  0  0  0  0
    4.1021    5.0365    0.4818 H   0  0  0  0  0  0  0  0  0  0  0  0
    1.6713    9.1662    1.8820 H   0  0  0  0  0  0  0  0  0  0  0  0
    0.7799    8.7623    0.3952 H   0  0  0  0  0  0  0  0  0  0  0  0
    0.9148   11.0509    0.7462 H   0  0  0  0  0  0  0  0  0  0  0  0
    0.2918   13.4146    0.4773 H   0  0  0  0  0  0  0  0  0  0  0  0
   -1.7756   14.2712    1.4979 H   0  0  0  0  0  0  0  0  0  0  0  0
   -2.6378   10.4032    3.0689 H   0  0  0  0  0  0  0  0  0  0  0  0
    0.4361    4.9321    2.7068 H   0  0  0  0  0  0  0  0  0  0  0  0
    0.7822    2.5363    3.1423 H   0  0  0  0  0  0  0  0  0  0  0  0
    0.2967   -0.0824    2.1382 H   0  0  0  0  0  0  0  0  0  0  0  0
    0.6819   -1.5995    1.2854 H   0  0  0  0  0  0  0  0  0  0  0  0
  1  2  1  0
  1 36  1  6
  1 37  1  0
  1 38  1  0
  2  3  1  1
  2 35  1  0
  2  4  1  0
  4  5  1  0
  4 39  1  1
  4 40  1  0
  5  6  1  6
  5  7  1  0
  5  8  1  0
  7 41  1  6
  7 42  1  0
  7 43  1  0
  8  9  1  0
  8 44  1  6
  8 45  1  0
 10  9  1  6
  9 35  1  0
 10 11  2  0
 10 12  2  0
 10 13  1  0
 13 34  2  0
 13 14  1  0
 14 15  2  0
 14 46  1  0
 15 16  1  0
 15 47  1  0
 16 17  1  0
 16 33  2  0
 17 18  2  0
 17 19  1  0
 19 20  1  0
 20 21  1  0
 20 48  1  1
 20 49  1  0
 21 22  2  0
 21 23  1  0
 23 32  2  0
 23 24  1  0
 24 25  2  0
 24 50  1  0
 25 26  1  0
 25 51  1  0
 26 27  2  0
 26 52  1  0
 27 28  1  0
 27 32  1  0
 28 29  1  1
 28 30  1  0
 28 31  1  0
 32 53  1  0
 33 34  1  0
 33 54  1  0
 34 55  1  0
 35 56  1  1
 35 57  1  0
M  END
$$$$
