ZINC000002899105
     RDKit          3D

 47 48  0  0  0  0  0  0  0  0999 V2000
   -0.0173    1.4248    0.0099 C   0  0  1  0  0  0  0  0  0  0  0  0
    0.0021   -0.0041    0.0020 O   0  0  0  0  0  0  0  0  0  0  0  0
    0.6518   -0.5703   -1.1379 C   0  0  1  0  0  0  0  0  0  0  0  0
    0.6131   -2.0967   -1.0411 C   0  0  1  0  0  0  0  0  0  0  0  0
   -0.7759   -2.5559   -1.1188 N   0  0  0  0  0  0  0  0  0  0  0  0
   -1.0549   -3.8729   -1.0544 C   0  0  0  0  0  0  0  0  0  0  0  0
   -0.1561   -4.6779   -0.9320 O   0  0  0  0  0  0  0  0  0  0  0  0
   -2.4837   -4.3452   -1.1344 C   0  0  1  0  0  0  0  0  0  0  0  0
   -2.5208   -5.8068   -1.0417 N   0  0  0  0  0  0  0  0  0  0  0  0
   -2.5267   -6.4576    0.2708 C   0  0  1  0  0  0  0  0  0  0  0  0
   -3.9403   -6.5333    0.7876 C   0  0  0  0  0  0  0  0  0  0  0  0
   -4.4541   -5.5001    1.5488 C   0  0  0  0  0  0  0  0  0  0  0  0
   -5.7508   -5.5695    2.0229 C   0  0  0  0  0  0  0  0  0  0  0  0
   -6.5338   -6.6718    1.7354 C   0  0  0  0  0  0  0  0  0  0  0  0
   -6.0202   -7.7046    0.9735 C   0  0  0  0  0  0  0  0  0  0  0  0
   -4.7250   -7.6333    0.4958 C   0  0  0  0  0  0  0  0  0  0  0  0
   -2.5560   -6.7233   -2.4205 S   0  0  1  0  0  0  0  0  0  0  0  0
   -3.2659   -7.9105   -2.0952 O   0  0  0  0  0  0  0  0  0  0  0  0
   -2.9427   -5.8502   -3.4729 O   0  0  0  0  0  0  0  0  0  0  0  0
   -0.8986   -7.2129   -2.7639 C   0  0  0  0  0  0  0  0  0  0  0  0
   -0.0919   -6.4153   -3.5538 C   0  0  0  0  0  0  0  0  0  0  0  0
    1.2084   -6.7994   -3.8231 C   0  0  0  0  0  0  0  0  0  0  0  0
    1.7022   -7.9808   -3.3022 C   0  0  0  0  0  0  0  0  0  0  0  0
    0.8957   -8.7779   -2.5116 C   0  0  0  0  0  0  0  0  0  0  0  0
   -0.4032   -8.3917   -2.2387 C   0  0  0  0  0  0  0  0  0  0  0  0
    1.0053    1.8021    0.0021 H   0  0  0  0  0  0  0  0  0  0  0  0
   -0.5445    1.7859   -0.8732 H   0  0  0  0  0  0  0  0  0  0  0  0
   -0.5275    1.7763    0.9067 H   0  0  0  0  0  0  0  0  0  0  0  0
    0.1385   -0.2506   -2.0447 H   0  0  0  0  0  0  0  0  0  0  0  0
    1.6883   -0.2344   -1.1694 H   0  0  0  0  0  0  0  0  0  0  0  0
    1.1847   -2.5275   -1.8631 H   0  0  0  0  0  0  0  0  0  0  0  0
    1.0473   -2.4117   -0.0922 H   0  0  0  0  0  0  0  0  0  0  0  0
   -1.4948   -1.9121   -1.2167 H   0  0  0  0  0  0  0  0  0  0  0  0
   -3.0554   -3.9144   -0.3124 H   0  0  0  0  0  0  0  0  0  0  0  0
   -2.9180   -4.0302   -2.0832 H   0  0  0  0  0  0  0  0  0  0  0  0
   -2.1191   -7.4644    0.1790 H   0  0  0  0  0  0  0  0  0  0  0  0
   -1.9163   -5.8804    0.9653 H   0  0  0  0  0  0  0  0  0  0  0  0
   -3.8424   -4.6388    1.7734 H   0  0  0  0  0  0  0  0  0  0  0  0
   -6.1520   -4.7626    2.6182 H   0  0  0  0  0  0  0  0  0  0  0  0
   -7.5466   -6.7263    2.1064 H   0  0  0  0  0  0  0  0  0  0  0  0
   -6.6318   -8.5660    0.7492 H   0  0  0  0  0  0  0  0  0  0  0  0
   -4.3238   -8.4402   -0.0995 H   0  0  0  0  0  0  0  0  0  0  0  0
   -0.4776   -5.4923   -3.9607 H   0  0  0  0  0  0  0  0  0  0  0  0
    1.8385   -6.1766   -4.4409 H   0  0  0  0  0  0  0  0  0  0  0  0
    2.7179   -8.2812   -3.5133 H   0  0  0  0  0  0  0  0  0  0  0  0
    1.2814   -9.7011   -2.1049 H   0  0  0  0  0  0  0  0  0  0  0  0
   -1.0333   -9.0145   -1.6209 H   0  0  0  0  0  0  0  0  0  0  0  0
  1  2  1  0
  1 26  1  6
  1 27  1  0
  1 28  1  0
  2  3  1  0
  3  4  1  0
  3 29  1  6
  3 30  1  0
  4  5  1  0
  4 31  1  6
  4 32  1  0
  5  6  1  0
  5 33  1  0
  6  7  2  0
  6  8  1  0
  8  9  1  0
  8 34  1  1
  8 35  1  0
  9 10  1  0
 17  9  1  1
 10 11  1  0
 10 36  1  6
 10 37  1  0
 11 16  2  0
 11 12  1  0
 12 13  2  0
 12 38  1  0
 13 14  1  0
 13 39  1  0
 14 15  2  0
 14 40  1  0
 15 16  1  0
 15 41  1  0
 16 42  1  0
 17 18  2  0
 17 19  2  0
 17 20  1  0
 20 25  2  0
 20 21  1  0
 21 22  2  0
 21 43  1  0
 22 23  1  0
 22 44  1  0
 23 24  2  0
 23 45  1  0
 24 25  1  0
 24 46  1  0
 25 47  1  0
M  END
$$$$
