ZINC000000675274
     RDKit          3D

 53 54  0  0  0  0  0  0  0  0999 V2000
   -5.6728    0.0946    3.9348 C   0  0  1  0  0  0  0  0  0  0  0  0
   -4.5678    1.1252    4.1751 C   0  0  1  0  0  0  0  0  0  0  0  0
   -3.5583    0.5630    5.1425 C   0  0  0  0  0  0  0  0  0  0  0  0
   -3.7230    0.7560    6.5017 C   0  0  0  0  0  0  0  0  0  0  0  0
   -2.7990    0.2417    7.3906 C   0  0  0  0  0  0  0  0  0  0  0  0
   -1.7054   -0.4695    6.9185 C   0  0  0  0  0  0  0  0  0  0  0  0
   -0.7953   -0.9769    7.7909 O   0  0  0  0  0  0  0  0  0  0  0  0
    0.3054   -1.6981    7.2338 C   0  0  1  0  0  0  0  0  0  0  0  0
    1.2026   -2.1816    8.3439 C   0  0  0  0  0  0  0  0  0  0  0  0
    0.9266   -1.9331    9.4985 O   0  0  0  0  0  0  0  0  0  0  0  0
    2.3116   -2.8903    8.0537 N   0  0  0  0  0  0  0  0  0  0  0  0
    3.1954   -3.2560    9.0750 C   0  0  0  0  0  0  0  0  0  0  0  0
    4.5622   -3.2937    8.8322 C   0  0  0  0  0  0  0  0  0  0  0  0
    5.4319   -3.6551    9.8424 C   0  0  0  0  0  0  0  0  0  0  0  0
    4.9429   -3.9798   11.0944 C   0  0  0  0  0  0  0  0  0  0  0  0
    6.0558   -4.4409   12.3804 S   0  0  1  0  0  0  0  0  0  0  0  0
    5.3036   -5.2175   13.3025 O   0  0  0  0  0  0  0  0  0  0  0  0
    7.2322   -4.9171   11.7413 O   0  0  0  0  0  0  0  0  0  0  0  0
    6.4852   -3.0545   13.1776 N   0  0  0  0  0  0  0  0  0  0  0  0
    5.6961   -2.5937   14.3228 C   0  0  1  0  0  0  0  0  0  0  0  0
    6.3329   -3.1012   15.6181 C   0  0  1  0  0  0  0  0  0  0  0  0
    7.6541   -2.2887   12.7378 C   0  0  1  0  0  0  0  0  0  0  0  0
    7.2060   -1.1719   11.7929 C   0  0  1  0  0  0  0  0  0  0  0  0
    3.5825   -3.9428   11.3396 C   0  0  0  0  0  0  0  0  0  0  0  0
    2.7080   -3.5767   10.3353 C   0  0  0  0  0  0  0  0  0  0  0  0
   -1.5427   -0.6622    5.5543 C   0  0  0  0  0  0  0  0  0  0  0  0
   -2.4720   -0.1500    4.6698 C   0  0  0  0  0  0  0  0  0  0  0  0
   -6.1648   -0.1375    4.8793 H   0  0  0  0  0  0  0  0  0  0  0  0
   -6.4029    0.5013    3.2351 H   0  0  0  0  0  0  0  0  0  0  0  0
   -5.2378   -0.8141    3.5188 H   0  0  0  0  0  0  0  0  0  0  0  0
   -4.0757    1.3573    3.2306 H   0  0  0  0  0  0  0  0  0  0  0  0
   -5.0027    2.0339    4.5912 H   0  0  0  0  0  0  0  0  0  0  0  0
   -4.5745    1.3098    6.8687 H   0  0  0  0  0  0  0  0  0  0  0  0
   -2.9277    0.3934    8.4521 H   0  0  0  0  0  0  0  0  0  0  0  0
   -0.0683   -2.5530    6.6703 H   0  0  0  0  0  0  0  0  0  0  0  0
    0.8697   -1.0437    6.5695 H   0  0  0  0  0  0  0  0  0  0  0  0
    2.4972   -3.1468    7.1368 H   0  0  0  0  0  0  0  0  0  0  0  0
    4.9447   -3.0409    7.8543 H   0  0  0  0  0  0  0  0  0  0  0  0
    6.4949   -3.6846    9.6541 H   0  0  0  0  0  0  0  0  0  0  0  0
    5.6719   -1.5040   14.3325 H   0  0  0  0  0  0  0  0  0  0  0  0
    4.6797   -2.9791   14.2423 H   0  0  0  0  0  0  0  0  0  0  0  0
    5.7458   -2.7584   16.4702 H   0  0  0  0  0  0  0  0  0  0  0  0
    6.3571   -4.1909   15.6085 H   0  0  0  0  0  0  0  0  0  0  0  0
    7.3493   -2.7159   15.6986 H   0  0  0  0  0  0  0  0  0  0  0  0
    8.1506   -1.8534   13.6051 H   0  0  0  0  0  0  0  0  0  0  0  0
    8.3464   -2.9497   12.2165 H   0  0  0  0  0  0  0  0  0  0  0  0
    8.0757   -0.6021   11.4656 H   0  0  0  0  0  0  0  0  0  0  0  0
    6.7095   -1.6071   10.9256 H   0  0  0  0  0  0  0  0  0  0  0  0
    6.5137   -0.5108   12.3141 H   0  0  0  0  0  0  0  0  0  0  0  0
    3.2037   -4.1969   12.3186 H   0  0  0  0  0  0  0  0  0  0  0  0
    1.6456   -3.5480   10.5274 H   0  0  0  0  0  0  0  0  0  0  0  0
   -0.6920   -1.2153    5.1843 H   0  0  0  0  0  0  0  0  0  0  0  0
   -2.3460   -0.3000    3.6077 H   0  0  0  0  0  0  0  0  0  0  0  0
  1  2  1  0
  1 28  1  1
  1 29  1  0
  1 30  1  0
  2  3  1  0
  2 31  1  6
  2 32  1  0
  3 27  2  0
  3  4  1  0
  4  5  2  0
  4 33  1  0
  5  6  1  0
  5 34  1  0
  6  7  1  0
  6 26  2  0
  7  8  1  0
  8  9  1  0
  8 35  1  6
  8 36  1  0
  9 10  2  0
  9 11  1  0
 11 12  1  0
 11 37  1  0
 12 25  2  0
 12 13  1  0
 13 14  2  0
 13 38  1  0
 14 15  1  0
 14 39  1  0
 15 16  1  0
 15 24  2  0
 16 17  2  0
 16 18  2  0
 16 19  1  1
 19 20  1  0
 19 22  1  0
 20 21  1  0
 20 40  1  1
 20 41  1  0
 21 42  1  1
 21 43  1  0
 21 44  1  0
 22 23  1  0
 22 45  1  1
 22 46  1  0
 23 47  1  6
 23 48  1  0
 23 49  1  0
 24 25  1  0
 24 50  1  0
 25 51  1  0
 26 27  1  0
 26 52  1  0
 27 53  1  0
M  END
$$$$
