ZINC000064943775
     RDKit          3D

 42 43  0  0  0  0  0  0  0  0999 V2000
   -0.0187    1.5258    0.0104 C   0  0  1  0  0  0  0  0  0  0  0  0
    0.0021   -0.0041    0.0020 C   0  0  1  0  0  0  0  0  0  0  0  0
    0.7182   -0.4975   -1.2568 C   0  0  1  0  0  0  0  0  0  0  0  0
    0.7390   -2.0273   -1.2652 C   0  0  1  0  0  0  0  0  0  0  0  0
    1.5880   -2.6123   -2.7577 S   0  0  1  0  0  0  0  0  0  0  0  0
    0.8185   -2.3203   -3.9160 O   0  0  0  0  0  0  0  0  0  0  0  0
    2.9725   -2.2977   -2.6994 O   0  0  0  0  0  0  0  0  0  0  0  0
    1.5391   -4.2635   -2.6405 N   0  0  0  0  0  0  0  0  0  0  0  0
    0.4128   -5.0054   -3.2126 C   0  0  1  0  0  0  0  0  0  0  0  0
    0.7723   -5.4738   -4.5991 C   0  0  0  0  0  0  0  0  0  0  0  0
    0.5049   -4.6699   -5.6913 C   0  0  0  0  0  0  0  0  0  0  0  0
    0.8346   -5.0996   -6.9632 C   0  0  0  0  0  0  0  0  0  0  0  0
    1.4322   -6.3331   -7.1427 C   0  0  0  0  0  0  0  0  0  0  0  0
    1.7912   -6.8018   -8.5292 C   0  0  1  0  0  0  0  0  0  0  0  0
    3.0912   -6.3881   -8.8393 F   0  0  0  0  0  0  0  0  0  0  0  0
    1.7209   -8.1980   -8.5823 F   0  0  0  0  0  0  0  0  0  0  0  0
    0.8947   -6.2543   -9.4533 F   0  0  0  0  0  0  0  0  0  0  0  0
    1.7009   -7.1365   -6.0503 C   0  0  0  0  0  0  0  0  0  0  0  0
    1.3746   -6.7051   -4.7782 C   0  0  0  0  0  0  0  0  0  0  0  0
    2.6222   -4.9823   -1.9648 C   0  0  1  0  0  0  0  0  0  0  0  0
    2.4261   -6.4781   -1.7101 C   0  0  1  0  0  0  0  0  0  0  0  0
    3.4087   -6.0073   -2.7842 C   0  0  1  0  0  0  0  0  0  0  0  0
    1.0039    1.9031    0.0027 H   0  0  0  0  0  0  0  0  0  0  0  0
   -0.5459    1.8868   -0.8726 H   0  0  0  0  0  0  0  0  0  0  0  0
   -0.5289    1.8773    0.9072 H   0  0  0  0  0  0  0  0  0  0  0  0
    0.5293   -0.3651    0.8851 H   0  0  0  0  0  0  0  0  0  0  0  0
   -1.0205   -0.3814    0.0098 H   0  0  0  0  0  0  0  0  0  0  0  0
    0.1910   -0.1364   -2.1398 H   0  0  0  0  0  0  0  0  0  0  0  0
    1.7408   -0.1202   -1.2645 H   0  0  0  0  0  0  0  0  0  0  0  0
    1.2661   -2.3884   -0.3821 H   0  0  0  0  0  0  0  0  0  0  0  0
   -0.2836   -2.4046   -1.2575 H   0  0  0  0  0  0  0  0  0  0  0  0
    0.1891   -5.8675   -2.5844 H   0  0  0  0  0  0  0  0  0  0  0  0
   -0.4614   -4.3563   -3.2637 H   0  0  0  0  0  0  0  0  0  0  0  0
    0.0380   -3.7061   -5.5511 H   0  0  0  0  0  0  0  0  0  0  0  0
    0.6250   -4.4718   -7.8166 H   0  0  0  0  0  0  0  0  0  0  0  0
    2.1681   -8.1000   -6.1906 H   0  0  0  0  0  0  0  0  0  0  0  0
    1.5846   -7.3328   -3.9247 H   0  0  0  0  0  0  0  0  0  0  0  0
    3.1691   -4.4111   -1.2146 H   0  0  0  0  0  0  0  0  0  0  0  0
    2.8439   -6.8913   -0.7921 H   0  0  0  0  0  0  0  0  0  0  0  0
    1.4913   -6.9274   -2.0453 H   0  0  0  0  0  0  0  0  0  0  0  0
    3.1203   -6.1469   -3.8261 H   0  0  0  0  0  0  0  0  0  0  0  0
    4.4730   -6.1109   -2.5729 H   0  0  0  0  0  0  0  0  0  0  0  0
  1  2  1  0
  1 23  1  6
  1 24  1  0
  1 25  1  0
  2  3  1  0
  2 26  1  1
  2 27  1  0
  3  4  1  0
  3 28  1  6
  3 29  1  0
  4  5  1  0
  4 30  1  1
  4 31  1  0
  5  6  2  0
  5  7  2  0
  5  8  1  1
  8  9  1  0
  8 20  1  0
  9 10  1  0
  9 32  1  1
  9 33  1  0
 10 19  2  0
 10 11  1  0
 11 12  2  0
 11 34  1  0
 12 13  1  0
 12 35  1  0
 13 14  1  0
 13 18  2  0
 14 15  1  6
 14 16  1  0
 14 17  1  0
 18 19  1  0
 18 36  1  0
 19 37  1  0
 20 22  1  0
 20 21  1  0
 20 38  1  1
 21 22  1  0
 21 39  1  1
 21 40  1  0
 22 41  1  6
 22 42  1  0
M  END
$$$$
