ZINC000225833854
     RDKit          3D

 47 48  0  0  0  0  0  0  0  0999 V2000
   -0.0187    1.5258    0.0104 C   0  0  1  0  0  0  0  0  0  0  0  0
    0.0021   -0.0041    0.0020 C   0  0  1  0  0  0  0  0  0  0  0  0
    0.7421   -0.5109    1.2415 C   0  0  1  0  0  0  0  0  0  0  0  0
   -1.3761   -0.5125    0.0124 N   0  0  0  0  0  0  0  0  0  0  0  0
   -2.1266    0.0242    1.1555 C   0  0  1  0  0  0  0  0  0  0  0  0
   -3.5991   -0.3813    1.0312 C   0  0  1  0  0  0  0  0  0  0  0  0
   -3.6697   -1.8417    0.8714 N   0  0  0  0  0  0  0  0  0  0  0  0
   -4.6598   -2.7552    1.8345 S   0  0  1  0  0  0  0  0  0  0  0  0
   -4.0467   -4.0370    1.8515 O   0  0  0  0  0  0  0  0  0  0  0  0
   -4.7930   -1.9910    3.0250 O   0  0  0  0  0  0  0  0  0  0  0  0
   -6.2350   -2.8149    0.9368 C   0  0  1  0  0  0  0  0  0  0  0  0
   -7.2457   -3.6412    1.7346 C   0  0  1  0  0  0  0  0  0  0  0  0
   -8.5543   -3.6907    0.9888 C   0  0  0  0  0  0  0  0  0  0  0  0
   -9.5134   -2.7202    1.2105 C   0  0  0  0  0  0  0  0  0  0  0  0
  -10.7137   -2.7657    0.5264 C   0  0  0  0  0  0  0  0  0  0  0  0
  -10.9548   -3.7814   -0.3797 C   0  0  0  0  0  0  0  0  0  0  0  0
  -12.2636   -3.8312   -1.1251 C   0  0  1  0  0  0  0  0  0  0  0  0
  -12.1481   -3.1110   -2.3189 F   0  0  0  0  0  0  0  0  0  0  0  0
  -12.5862   -5.1618   -1.4126 F   0  0  0  0  0  0  0  0  0  0  0  0
  -13.2716   -3.2671   -0.3359 F   0  0  0  0  0  0  0  0  0  0  0  0
   -9.9952   -4.7512   -0.6024 C   0  0  0  0  0  0  0  0  0  0  0  0
   -8.7933   -4.7035    0.0789 C   0  0  0  0  0  0  0  0  0  0  0  0
   -2.8379   -2.4691   -0.1667 C   0  0  1  0  0  0  0  0  0  0  0  0
   -1.3954   -1.9814    0.0047 C   0  0  1  0  0  0  0  0  0  0  0  0
    1.0039    1.9031    0.0027 H   0  0  0  0  0  0  0  0  0  0  0  0
   -0.5459    1.8868   -0.8726 H   0  0  0  0  0  0  0  0  0  0  0  0
   -0.5289    1.8773    0.9072 H   0  0  0  0  0  0  0  0  0  0  0  0
    0.5123   -0.3556   -0.8948 H   0  0  0  0  0  0  0  0  0  0  0  0
    0.2319   -0.1594    2.1383 H   0  0  0  0  0  0  0  0  0  0  0  0
    0.7568   -1.6008    1.2356 H   0  0  0  0  0  0  0  0  0  0  0  0
    1.7647   -0.1336    1.2338 H   0  0  0  0  0  0  0  0  0  0  0  0
   -1.7156   -0.3776    2.0816 H   0  0  0  0  0  0  0  0  0  0  0  0
   -2.0482    1.1114    1.1639 H   0  0  0  0  0  0  0  0  0  0  0  0
   -4.1377   -0.0850    1.9313 H   0  0  0  0  0  0  0  0  0  0  0  0
   -4.0404    0.1041    0.1607 H   0  0  0  0  0  0  0  0  0  0  0  0
   -6.6167   -1.8024    0.8050 H   0  0  0  0  0  0  0  0  0  0  0  0
   -6.0797   -3.2745   -0.0393 H   0  0  0  0  0  0  0  0  0  0  0  0
   -6.8640   -4.6536    1.8663 H   0  0  0  0  0  0  0  0  0  0  0  0
   -7.4010   -3.1815    2.7107 H   0  0  0  0  0  0  0  0  0  0  0  0
   -9.3250   -1.9266    1.9184 H   0  0  0  0  0  0  0  0  0  0  0  0
  -11.4633   -2.0078    0.7001 H   0  0  0  0  0  0  0  0  0  0  0  0
  -10.1834   -5.5445   -1.3106 H   0  0  0  0  0  0  0  0  0  0  0  0
   -8.0436   -5.4612   -0.0951 H   0  0  0  0  0  0  0  0  0  0  0  0
   -2.8732   -3.5531   -0.0585 H   0  0  0  0  0  0  0  0  0  0  0  0
   -3.2060   -2.1845   -1.1524 H   0  0  0  0  0  0  0  0  0  0  0  0
   -0.7866   -2.3488   -0.8214 H   0  0  0  0  0  0  0  0  0  0  0  0
   -0.9945   -2.3553    0.9468 H   0  0  0  0  0  0  0  0  0  0  0  0
  1  2  1  0
  1 25  1  6
  1 26  1  0
  1 27  1  0
  2  3  1  0
  2  4  1  0
  2 28  1  6
  3 29  1  1
  3 30  1  0
  3 31  1  0
  4 24  1  0
  4  5  1  0
  5  6  1  0
  5 32  1  1
  5 33  1  0
  6  7  1  0
  6 34  1  1
  6 35  1  0
  8  7  1  6
  7 23  1  0
  8  9  2  0
  8 10  2  0
  8 11  1  0
 11 12  1  0
 11 36  1  6
 11 37  1  0
 12 13  1  0
 12 38  1  1
 12 39  1  0
 13 22  2  0
 13 14  1  0
 14 15  2  0
 14 40  1  0
 15 16  1  0
 15 41  1  0
 16 17  1  0
 16 21  2  0
 17 18  1  6
 17 19  1  0
 17 20  1  0
 21 22  1  0
 21 42  1  0
 22 43  1  0
 23 24  1  0
 23 44  1  6
 23 45  1  0
 24 46  1  6
 24 47  1  0
M  END
$$$$
