ZINC000010662660
     RDKit          3D

 46 48  0  0  0  0  0  0  0  0999 V2000
   -0.3873    1.8044    0.9901 C   0  0  1  0  0  0  0  0  0  0  0  0
   -0.5288    0.3224    1.2234 C   0  0  0  0  0  0  0  0  0  0  0  0
   -0.8379   -0.5805    0.3381 N   0  0  0  0  0  0  0  0  0  0  0  0
   -0.8753   -1.6868    0.8247 O   0  0  0  0  0  0  0  0  0  0  0  0
   -0.5874   -1.6594    2.1335 C   0  0  0  0  0  0  0  0  0  0  0  0
   -0.5358   -2.8383    3.0708 C   0  0  1  0  0  0  0  0  0  0  0  0
   -0.3460   -0.3638    2.4460 C   0  0  0  0  0  0  0  0  0  0  0  0
    0.0852    0.3116    4.0152 S   0  0  1  0  0  0  0  0  0  0  0  0
   -0.3005    1.6789    3.9833 O   0  0  0  0  0  0  0  0  0  0  0  0
   -0.3877   -0.6067    4.9910 O   0  0  0  0  0  0  0  0  0  0  0  0
    1.7379    0.2943    4.1189 N   0  0  0  0  0  0  0  0  0  0  0  0
    2.4406   -0.8729    4.6701 C   0  0  1  0  0  0  0  0  0  0  0  0
    3.4646   -1.3609    3.6380 C   0  0  1  0  0  0  0  0  0  0  0  0
    4.2550   -0.2096    3.1799 N   0  0  0  0  0  0  0  0  0  0  0  0
    5.6000   -0.2241    3.2635 C   0  0  0  0  0  0  0  0  0  0  0  0
    6.2466    0.7041    2.8186 O   0  0  0  0  0  0  0  0  0  0  0  0
    6.2891   -1.3689    3.8962 C   0  0  0  0  0  0  0  0  0  0  0  0
    5.9976   -2.6728    3.4923 C   0  0  0  0  0  0  0  0  0  0  0  0
    6.6445   -3.7366    4.0865 C   0  0  0  0  0  0  0  0  0  0  0  0
    7.5801   -3.5132    5.0811 C   0  0  0  0  0  0  0  0  0  0  0  0
    8.2825   -4.6802    5.7260 C   0  0  1  0  0  0  0  0  0  0  0  0
    9.4514   -4.9719    5.0148 F   0  0  0  0  0  0  0  0  0  0  0  0
    8.6091   -4.3557    7.0471 F   0  0  0  0  0  0  0  0  0  0  0  0
    7.4391   -5.7963    5.7148 F   0  0  0  0  0  0  0  0  0  0  0  0
    7.8740   -2.2232    5.4858 C   0  0  0  0  0  0  0  0  0  0  0  0
    7.2382   -1.1503    4.8961 C   0  0  0  0  0  0  0  0  0  0  0  0
    3.5523    0.9576    2.6287 C   0  0  1  0  0  0  0  0  0  0  0  0
    2.5285    1.4433    3.6557 C   0  0  1  0  0  0  0  0  0  0  0  0
    0.6418    2.0319    0.7122 H   0  0  0  0  0  0  0  0  0  0  0  0
   -1.0569    2.1113    0.1866 H   0  0  0  0  0  0  0  0  0  0  0  0
   -0.6445    2.3421    1.9027 H   0  0  0  0  0  0  0  0  0  0  0  0
   -0.7730   -3.7496    2.5219 H   0  0  0  0  0  0  0  0  0  0  0  0
    0.4643   -2.9206    3.4965 H   0  0  0  0  0  0  0  0  0  0  0  0
   -1.2612   -2.6975    3.8720 H   0  0  0  0  0  0  0  0  0  0  0  0
    2.9538   -0.5904    5.5893 H   0  0  0  0  0  0  0  0  0  0  0  0
    1.7235   -1.6671    4.8778 H   0  0  0  0  0  0  0  0  0  0  0  0
    4.1238   -2.0978    4.0968 H   0  0  0  0  0  0  0  0  0  0  0  0
    2.9452   -1.8084    2.7906 H   0  0  0  0  0  0  0  0  0  0  0  0
    5.2670   -2.8485    2.7166 H   0  0  0  0  0  0  0  0  0  0  0  0
    6.4199   -4.7460    3.7749 H   0  0  0  0  0  0  0  0  0  0  0  0
    8.6056   -2.0556    6.2624 H   0  0  0  0  0  0  0  0  0  0  0  0
    7.4687   -0.1438    5.2126 H   0  0  0  0  0  0  0  0  0  0  0  0
    4.2694    1.7518    2.4211 H   0  0  0  0  0  0  0  0  0  0  0  0
    3.0391    0.6751    1.7095 H   0  0  0  0  0  0  0  0  0  0  0  0
    1.8701    2.1801    3.1956 H   0  0  0  0  0  0  0  0  0  0  0  0
    3.0457    1.8907    4.5045 H   0  0  0  0  0  0  0  0  0  0  0  0
  1  2  1  0
  1 29  1  6
  1 30  1  0
  1 31  1  0
  2  7  1  0
  2  3  2  0
  3  4  1  0
  4  5  1  0
  5  6  1  0
  5  7  2  0
  6 32  1  6
  6 33  1  0
  6 34  1  0
  7  8  1  0
  8  9  2  0
  8 10  2  0
  8 11  1  6
 11 28  1  0
 11 12  1  0
 12 13  1  0
 12 35  1  1
 12 36  1  0
 13 14  1  0
 13 37  1  1
 13 38  1  0
 14 15  1  0
 14 27  1  0
 15 16  2  0
 15 17  1  0
 17 26  2  0
 17 18  1  0
 18 19  2  0
 18 39  1  0
 19 20  1  0
 19 40  1  0
 20 21  1  0
 20 25  2  0
 21 22  1  6
 21 23  1  0
 21 24  1  0
 25 26  1  0
 25 41  1  0
 26 42  1  0
 27 28  1  0
 27 43  1  6
 27 44  1  0
 28 45  1  6
 28 46  1  0
M  END
$$$$
