ZINC000085642150
     RDKit          3D

 51 54  0  0  0  0  0  0  0  0999 V2000
   -0.0187    1.5258    0.0104 C   0  0  1  0  0  0  0  0  0  0  0  0
    0.0021   -0.0041    0.0020 C   0  0  1  0  0  0  0  0  0  0  0  0
    0.7170   -0.4974   -1.2580 C   0  0  1  0  0  0  0  0  0  0  0  0
    0.7054   -2.0291   -1.2803 C   0  0  1  0  0  0  0  0  0  0  0  0
    1.2851   -2.5247   -0.0245 N   0  0  0  0  0  0  0  0  0  0  0  0
    2.5396   -3.6056   -0.0430 S   0  0  1  0  0  0  0  0  0  0  0  0
    2.5007   -4.2868    1.2034 O   0  0  0  0  0  0  0  0  0  0  0  0
    2.4756   -4.2730   -1.2959 O   0  0  0  0  0  0  0  0  0  0  0  0
    4.0333   -2.6710   -0.0528 C   0  0  0  0  0  0  0  0  0  0  0  0
    4.6023   -2.2940   -1.2559 C   0  0  0  0  0  0  0  0  0  0  0  0
    5.7723   -1.5619   -1.2693 C   0  0  0  0  0  0  0  0  0  0  0  0
    6.3798   -1.2022   -0.0683 C   0  0  0  0  0  0  0  0  0  0  0  0
    7.6380   -0.4144   -0.0765 C   0  0  0  0  0  0  0  0  0  0  0  0
    8.2785    0.0116   -1.1349 N   0  0  0  0  0  0  0  0  0  0  0  0
    9.2714    0.6262   -0.8075 O   0  0  0  0  0  0  0  0  0  0  0  0
    9.3697    0.6567    0.5306 C   0  0  0  0  0  0  0  0  0  0  0  0
   10.4363    1.3077    1.3206 C   0  0  0  0  0  0  0  0  0  0  0  0
   10.4090    1.2519    2.7149 C   0  0  0  0  0  0  0  0  0  0  0  0
   11.4077    1.8610    3.4463 C   0  0  0  0  0  0  0  0  0  0  0  0
   12.4346    2.5263    2.8006 C   0  0  0  0  0  0  0  0  0  0  0  0
   13.5224    3.1890    3.6059 C   0  0  1  0  0  0  0  0  0  0  0  0
   14.5619    2.2784    3.8237 F   0  0  0  0  0  0  0  0  0  0  0  0
   14.0119    4.2968    2.9057 F   0  0  0  0  0  0  0  0  0  0  0  0
   13.0032    3.6069    4.8359 F   0  0  0  0  0  0  0  0  0  0  0  0
   12.4676    2.5854    1.4186 C   0  0  0  0  0  0  0  0  0  0  0  0
   11.4779    1.9759    0.6753 C   0  0  0  0  0  0  0  0  0  0  0  0
    8.3289   -0.0006    1.0062 N   0  0  0  0  0  0  0  0  0  0  0  0
    5.8021   -1.5842    1.1406 C   0  0  0  0  0  0  0  0  0  0  0  0
    4.6294   -2.3121    1.1426 C   0  0  0  0  0  0  0  0  0  0  0  0
    0.7310   -2.0426    1.2480 C   0  0  1  0  0  0  0  0  0  0  0  0
    0.7423   -0.5108    1.2420 C   0  0  1  0  0  0  0  0  0  0  0  0
    1.0039    1.9031    0.0027 H   0  0  0  0  0  0  0  0  0  0  0  0
   -0.5459    1.8868   -0.8726 H   0  0  0  0  0  0  0  0  0  0  0  0
   -0.5289    1.8773    0.9072 H   0  0  0  0  0  0  0  0  0  0  0  0
   -1.0206   -0.3812    0.0102 H   0  0  0  0  0  0  0  0  0  0  0  0
    0.2028   -0.1168   -2.1406 H   0  0  0  0  0  0  0  0  0  0  0  0
    1.7472   -0.1413   -1.2548 H   0  0  0  0  0  0  0  0  0  0  0  0
   -0.3204   -2.3854   -1.3749 H   0  0  0  0  0  0  0  0  0  0  0  0
    1.2978   -2.3867   -2.1225 H   0  0  0  0  0  0  0  0  0  0  0  0
    4.1305   -2.5733   -2.1863 H   0  0  0  0  0  0  0  0  0  0  0  0
    6.2162   -1.2686   -2.2092 H   0  0  0  0  0  0  0  0  0  0  0  0
    9.6077    0.7332    3.2202 H   0  0  0  0  0  0  0  0  0  0  0  0
   11.3875    1.8189    4.5253 H   0  0  0  0  0  0  0  0  0  0  0  0
   13.2718    3.1065    0.9206 H   0  0  0  0  0  0  0  0  0  0  0  0
   11.5048    2.0227   -0.4033 H   0  0  0  0  0  0  0  0  0  0  0  0
    6.2692   -1.3083    2.0744 H   0  0  0  0  0  0  0  0  0  0  0  0
    4.1805   -2.6084    2.0791 H   0  0  0  0  0  0  0  0  0  0  0  0
   -0.2926   -2.4001    1.3596 H   0  0  0  0  0  0  0  0  0  0  0  0
    1.3404   -2.4092    2.0741 H   0  0  0  0  0  0  0  0  0  0  0  0
    1.7723   -0.1546    1.2216 H   0  0  0  0  0  0  0  0  0  0  0  0
    0.2462   -0.1397    2.1388 H   0  0  0  0  0  0  0  0  0  0  0  0
  1  2  1  0
  1 32  1  6
  1 33  1  0
  1 34  1  0
  2 31  1  0
  2  3  1  0
  2 35  1  1
  3  4  1  0
  3 36  1  6
  3 37  1  0
  4  5  1  0
  4 38  1  6
  4 39  1  0
  6  5  1  1
  5 30  1  0
  6  7  2  0
  6  8  2  0
  6  9  1  0
  9 29  2  0
  9 10  1  0
 10 11  2  0
 10 40  1  0
 11 12  1  0
 11 41  1  0
 12 13  1  0
 12 28  2  0
 13 27  1  0
 13 14  2  0
 14 15  1  0
 15 16  1  0
 16 17  1  0
 16 27  2  0
 17 26  2  0
 17 18  1  0
 18 19  2  0
 18 42  1  0
 19 20  1  0
 19 43  1  0
 20 21  1  0
 20 25  2  0
 21 22  1  1
 21 23  1  0
 21 24  1  0
 25 26  1  0
 25 44  1  0
 26 45  1  0
 28 29  1  0
 28 46  1  0
 29 47  1  0
 30 31  1  0
 30 48  1  1
 30 49  1  0
 31 50  1  6
 31 51  1  0
M  END
$$$$
