ZINC000072134729
     RDKit          3D

 47 48  0  0  1  0  0  0  0  0999 V2000
   -0.0187    1.5258    0.0104 C   0  0  1  0  0  0  0  0  0  0  0  0
    0.0021   -0.0041    0.0020 C   0  0  1  0  0  0  0  0  0  0  0  0
    0.7421   -0.5109    1.2415 C   0  0  1  0  0  0  0  0  0  0  0  0
   -1.3386   -0.4987    0.0122 O   0  0  0  0  0  0  0  0  0  0  0  0
   -1.8963   -0.6929   -1.2891 C   0  0  1  0  0  0  0  0  0  0  0  0
   -3.3046   -1.2135   -1.1594 C   0  0  0  0  0  0  0  0  0  0  0  0
   -3.7834   -1.3999   -0.0609 O   0  0  0  0  0  0  0  0  0  0  0  0
   -4.0319   -1.4720   -2.2643 N   0  0  0  0  0  0  0  0  0  0  0  0
   -3.4634   -1.2569   -3.6020 C   0  0  1  0  0  0  0  0  0  0  0  0
   -4.4094   -0.3546   -4.4005 C   0  0  1  0  0  0  0  0  0  0  0  0
   -5.8112   -0.9686   -4.4046 C   0  0  1  0  0  0  0  0  0  0  0  0
   -6.3323   -1.0642   -2.9688 C   0  0  1  0  0  0  0  0  0  0  0  0
   -6.3506   -0.0703   -2.5215 H   0  0  0  0  0  0  0  0  0  0  0  0
   -7.7257   -1.6381   -2.9765 C   0  0  0  0  0  0  0  0  0  0  0  0
   -8.0563   -2.4156   -3.8463 O   0  0  0  0  0  0  0  0  0  0  0  0
   -8.6851   -1.2551   -1.9283 C   0  0  0  0  0  0  0  0  0  0  0  0
   -8.3093   -0.3543   -0.9267 C   0  0  0  0  0  0  0  0  0  0  0  0
   -9.2140   -0.0004    0.0519 C   0  0  0  0  0  0  0  0  0  0  0  0
  -10.4908   -0.5345    0.0449 C   0  0  0  0  0  0  0  0  0  0  0  0
  -11.4732   -0.1423    1.1182 C   0  0  1  0  0  0  0  0  0  0  0  0
  -12.1931    0.9831    0.7028 F   0  0  0  0  0  0  0  0  0  0  0  0
  -12.3571   -1.2015    1.3510 F   0  0  0  0  0  0  0  0  0  0  0  0
  -10.7815    0.1556    2.2972 F   0  0  0  0  0  0  0  0  0  0  0  0
  -10.8702   -1.4266   -0.9430 C   0  0  0  0  0  0  0  0  0  0  0  0
   -9.9791   -1.7856   -1.9321 C   0  0  0  0  0  0  0  0  0  0  0  0
   -5.4061   -1.9799   -2.1540 C   0  0  1  0  0  0  0  0  0  0  0  0
    1.0039    1.9031    0.0027 H   0  0  0  0  0  0  0  0  0  0  0  0
   -0.5459    1.8868   -0.8726 H   0  0  0  0  0  0  0  0  0  0  0  0
   -0.5289    1.8773    0.9072 H   0  0  0  0  0  0  0  0  0  0  0  0
    0.5123   -0.3556   -0.8948 H   0  0  0  0  0  0  0  0  0  0  0  0
    0.2319   -0.1594    2.1383 H   0  0  0  0  0  0  0  0  0  0  0  0
    0.7568   -1.6008    1.2356 H   0  0  0  0  0  0  0  0  0  0  0  0
    1.7647   -0.1336    1.2338 H   0  0  0  0  0  0  0  0  0  0  0  0
   -1.9077    0.2563   -1.8248 H   0  0  0  0  0  0  0  0  0  0  0  0
   -1.2917   -1.4136   -1.8397 H   0  0  0  0  0  0  0  0  0  0  0  0
   -2.4892   -0.7764   -3.5121 H   0  0  0  0  0  0  0  0  0  0  0  0
   -3.3552   -2.2146   -4.1112 H   0  0  0  0  0  0  0  0  0  0  0  0
   -4.4459    0.6325   -3.9397 H   0  0  0  0  0  0  0  0  0  0  0  0
   -4.0484   -0.2653   -5.4251 H   0  0  0  0  0  0  0  0  0  0  0  0
   -6.4808   -0.3411   -4.9928 H   0  0  0  0  0  0  0  0  0  0  0  0
   -5.7697   -1.9657   -4.8429 H   0  0  0  0  0  0  0  0  0  0  0  0
   -7.3131    0.0627   -0.9195 H   0  0  0  0  0  0  0  0  0  0  0  0
   -8.9253    0.6951    0.8261 H   0  0  0  0  0  0  0  0  0  0  0  0
  -11.8684   -1.8390   -0.9417 H   0  0  0  0  0  0  0  0  0  0  0  0
  -10.2766   -2.4818   -2.7023 H   0  0  0  0  0  0  0  0  0  0  0  0
   -5.4587   -2.9954   -2.5466 H   0  0  0  0  0  0  0  0  0  0  0  0
   -5.7138   -1.9738   -1.1084 H   0  0  0  0  0  0  0  0  0  0  0  0
  1  2  1  0
  1 27  1  6
  1 28  1  0
  1 29  1  0
  2  3  1  0
  2  4  1  0
  2 30  1  6
  3 31  1  1
  3 32  1  0
  3 33  1  0
  4  5  1  0
  5  6  1  0
  5 34  1  6
  5 35  1  0
  6  7  2  0
  6  8  1  0
  8 26  1  0
  8  9  1  0
  9 10  1  0
  9 36  1  1
  9 37  1  0
 10 11  1  0
 10 38  1  1
 10 39  1  0
 11 12  1  0
 11 40  1  6
 11 41  1  0
 12 13  1  1
 12 14  1  0
 12 26  1  0
 14 15  2  0
 14 16  1  0
 16 25  2  0
 16 17  1  0
 17 18  2  0
 17 42  1  0
 18 19  1  0
 18 43  1  0
 19 20  1  0
 19 24  2  0
 20 21  1  6
 20 22  1  0
 20 23  1  0
 24 25  1  0
 24 44  1  0
 25 45  1  0
 26 46  1  6
 26 47  1  0
M  END
$$$$
