ZINC000023805396
     RDKit          3D

 49 51  0  0  1  0  0  0  0  0999 V2000
    0.0358    0.4824   -0.4317 O   0  0  0  0  0  0  0  0  0  0  0  0
   -0.1346    1.8929   -0.4025 S   0  0  1  0  0  0  0  0  0  0  0  0
    0.9465    2.8088   -0.5102 O   0  0  0  0  0  0  0  0  0  0  0  0
   -1.2517    2.2862   -1.7071 C   0  0  0  0  0  0  0  0  0  0  0  0
   -2.1300    1.3279   -2.1774 C   0  0  0  0  0  0  0  0  0  0  0  0
   -3.0065    1.6365   -3.2009 C   0  0  0  0  0  0  0  0  0  0  0  0
   -3.0049    2.9034   -3.7537 C   0  0  0  0  0  0  0  0  0  0  0  0
   -3.9601    3.2397   -4.8699 C   0  0  1  0  0  0  0  0  0  0  0  0
   -5.1536    3.7310   -4.3301 F   0  0  0  0  0  0  0  0  0  0  0  0
   -3.3872    4.2118   -5.6969 F   0  0  0  0  0  0  0  0  0  0  0  0
   -4.2261    2.0883   -5.6187 F   0  0  0  0  0  0  0  0  0  0  0  0
   -2.1276    3.8621   -3.2825 C   0  0  0  0  0  0  0  0  0  0  0  0
   -1.2538    3.5547   -2.2564 C   0  0  0  0  0  0  0  0  0  0  0  0
   -0.9027    2.2417    1.0225 N   0  0  0  0  0  0  0  0  0  0  0  0
   -0.7979    3.5773    1.6293 C   0  0  1  0  0  0  0  0  0  0  0  0
   -2.2105    4.0816    1.9432 C   0  0  1  0  0  0  0  0  0  0  0  0
   -2.9138    3.0823    2.7586 N   0  0  0  0  0  0  0  0  0  0  0  0
   -4.2073    3.5994    3.2250 C   0  0  1  0  0  0  0  0  0  0  0  0
   -3.9783    4.5890    4.3692 C   0  0  2  0  0  0  0  0  0  0  0  0
   -3.3191    5.3887    4.0315 H   0  0  0  0  0  0  0  0  0  0  0  0
   -3.3764    3.9098    5.4731 O   0  0  0  0  0  0  0  0  0  0  0  0
   -5.2988    5.1743    4.7990 C   0  0  0  0  0  0  0  0  0  0  0  0
   -6.0847    4.5053    5.7186 C   0  0  0  0  0  0  0  0  0  0  0  0
   -7.2960    5.0422    6.1129 C   0  0  0  0  0  0  0  0  0  0  0  0
   -7.7211    6.2482    5.5879 C   0  0  0  0  0  0  0  0  0  0  0  0
   -6.9347    6.9176    4.6690 C   0  0  0  0  0  0  0  0  0  0  0  0
   -5.7215    6.3829    4.2780 C   0  0  0  0  0  0  0  0  0  0  0  0
   -3.0846    1.8209    2.0254 C   0  0  1  0  0  0  0  0  0  0  0  0
   -1.7128    1.2258    1.7117 C   0  0  1  0  0  0  0  0  0  0  0  0
   -2.1312    0.3380   -1.7455 H   0  0  0  0  0  0  0  0  0  0  0  0
   -3.6922    0.8876   -3.5688 H   0  0  0  0  0  0  0  0  0  0  0  0
   -2.1266    4.8521   -3.7142 H   0  0  0  0  0  0  0  0  0  0  0  0
   -0.5683    4.3037   -1.8882 H   0  0  0  0  0  0  0  0  0  0  0  0
   -0.2178    3.5166    2.5501 H   0  0  0  0  0  0  0  0  0  0  0  0
   -0.3123    4.2595    0.9315 H   0  0  0  0  0  0  0  0  0  0  0  0
   -2.1477    5.0207    2.4930 H   0  0  0  0  0  0  0  0  0  0  0  0
   -2.7552    4.2402    1.0125 H   0  0  0  0  0  0  0  0  0  0  0  0
   -4.7141    4.1051    2.4032 H   0  0  0  0  0  0  0  0  0  0  0  0
   -4.8233    2.7723    3.5779 H   0  0  0  0  0  0  0  0  0  0  0  0
   -3.9089    3.1839    5.8260 H   0  0  0  0  0  0  0  0  0  0  0  0
   -5.7526    3.5630    6.1288 H   0  0  0  0  0  0  0  0  0  0  0  0
   -7.9104    4.5192    6.8308 H   0  0  0  0  0  0  0  0  0  0  0  0
   -8.6678    6.6674    5.8954 H   0  0  0  0  0  0  0  0  0  0  0  0
   -7.2670    7.8597    4.2586 H   0  0  0  0  0  0  0  0  0  0  0  0
   -5.1070    6.9058    3.5601 H   0  0  0  0  0  0  0  0  0  0  0  0
   -3.6557    1.1204    2.6348 H   0  0  0  0  0  0  0  0  0  0  0  0
   -3.6171    2.0110    1.0935 H   0  0  0  0  0  0  0  0  0  0  0  0
   -1.8305    0.3522    1.0706 H   0  0  0  0  0  0  0  0  0  0  0  0
   -1.2175    0.9386    2.6393 H   0  0  0  0  0  0  0  0  0  0  0  0
  1  2  2  0
  2  3  2  0
  2  4  1  0
  2 14  1  1
  4 13  2  0
  4  5  1  0
  5  6  2  0
  5 30  1  0
  6  7  1  0
  6 31  1  0
  7  8  1  0
  7 12  2  0
  8  9  1  1
  8 10  1  0
  8 11  1  0
 12 13  1  0
 12 32  1  0
 13 33  1  0
 14 29  1  0
 14 15  1  0
 15 16  1  0
 15 34  1  1
 15 35  1  0
 16 17  1  0
 16 36  1  1
 16 37  1  0
 17 18  1  0
 17 28  1  0
 18 19  1  0
 18 38  1  6
 18 39  1  0
 19 20  1  6
 19 21  1  0
 19 22  1  0
 21 40  1  0
 22 27  2  0
 22 23  1  0
 23 24  2  0
 23 41  1  0
 24 25  1  0
 24 42  1  0
 25 26  2  0
 25 43  1  0
 26 27  1  0
 26 44  1  0
 27 45  1  0
 28 29  1  0
 28 46  1  1
 28 47  1  0
 29 48  1  6
 29 49  1  0
M  END
$$$$
