ZINC000408767544
     RDKit          3D

 58 59  0  0  0  0  0  0  0  0999 V2000
   -0.0173    1.4248    0.0099 C   0  0  1  0  0  0  0  0  0  0  0  0
    0.0021   -0.0041    0.0020 O   0  0  0  0  0  0  0  0  0  0  0  0
    0.6518   -0.5703   -1.1379 C   0  0  1  0  0  0  0  0  0  0  0  0
    0.6131   -2.0967   -1.0411 C   0  0  1  0  0  0  0  0  0  0  0  0
    1.3087   -2.7029   -2.2615 C   0  0  1  0  0  0  0  0  0  0  0  0
    1.2717   -4.1645   -2.1688 N   0  0  0  0  0  0  0  0  0  0  0  0
    1.8279   -4.9157   -3.1398 C   0  0  0  0  0  0  0  0  0  0  0  0
    2.3592   -4.3816   -4.0903 O   0  0  0  0  0  0  0  0  0  0  0  0
    1.7898   -6.4192   -3.0444 C   0  0  1  0  0  0  0  0  0  0  0  0
    2.4559   -6.9996   -4.2130 N   0  0  0  0  0  0  0  0  0  0  0  0
    3.9101   -7.1769   -4.2144 C   0  0  1  0  0  0  0  0  0  0  0  0
    4.2576   -8.4830   -3.5479 C   0  0  0  0  0  0  0  0  0  0  0  0
    4.4804   -8.5254   -2.1843 C   0  0  0  0  0  0  0  0  0  0  0  0
    4.7992   -9.7236   -1.5730 C   0  0  0  0  0  0  0  0  0  0  0  0
    4.8947  -10.8794   -2.3252 C   0  0  0  0  0  0  0  0  0  0  0  0
    4.6711  -10.8372   -3.6886 C   0  0  0  0  0  0  0  0  0  0  0  0
    4.3481   -9.6398   -4.2993 C   0  0  0  0  0  0  0  0  0  0  0  0
    1.5650   -7.4555   -5.5324 S   0  0  1  0  0  0  0  0  0  0  0  0
    2.3330   -8.4366   -6.2157 O   0  0  0  0  0  0  0  0  0  0  0  0
    0.2444   -7.6903   -5.0632 O   0  0  0  0  0  0  0  0  0  0  0  0
    1.4712   -6.0611   -6.6055 C   0  0  0  0  0  0  0  0  0  0  0  0
    0.4367   -5.1547   -6.4694 C   0  0  0  0  0  0  0  0  0  0  0  0
    0.3584   -4.0590   -7.3094 C   0  0  0  0  0  0  0  0  0  0  0  0
    1.3184   -3.8677   -8.2896 C   0  0  0  0  0  0  0  0  0  0  0  0
    1.2431   -2.7904   -9.1161 O   0  0  0  0  0  0  0  0  0  0  0  0
    0.1467   -1.8956   -8.9175 C   0  0  1  0  0  0  0  0  0  0  0  0
    2.3605   -4.7803   -8.4263 C   0  0  0  0  0  0  0  0  0  0  0  0
    3.3057   -4.5965   -9.3867 O   0  0  0  0  0  0  0  0  0  0  0  0
    4.3457   -5.5731   -9.4687 C   0  0  1  0  0  0  0  0  0  0  0  0
    2.4359   -5.8730   -7.5782 C   0  0  0  0  0  0  0  0  0  0  0  0
    1.0053    1.8021    0.0021 H   0  0  0  0  0  0  0  0  0  0  0  0
   -0.5445    1.7859   -0.8732 H   0  0  0  0  0  0  0  0  0  0  0  0
   -0.5275    1.7763    0.9067 H   0  0  0  0  0  0  0  0  0  0  0  0
    0.1385   -0.2506   -2.0447 H   0  0  0  0  0  0  0  0  0  0  0  0
    1.6883   -0.2344   -1.1694 H   0  0  0  0  0  0  0  0  0  0  0  0
    1.1264   -2.4164   -0.1342 H   0  0  0  0  0  0  0  0  0  0  0  0
   -0.4234   -2.4326   -1.0095 H   0  0  0  0  0  0  0  0  0  0  0  0
    0.7954   -2.3833   -3.1684 H   0  0  0  0  0  0  0  0  0  0  0  0
    2.3452   -2.3671   -2.2930 H   0  0  0  0  0  0  0  0  0  0  0  0
    0.8468   -4.5917   -1.4086 H   0  0  0  0  0  0  0  0  0  0  0  0
    2.3031   -6.7389   -2.1376 H   0  0  0  0  0  0  0  0  0  0  0  0
    0.7533   -6.7551   -3.0129 H   0  0  0  0  0  0  0  0  0  0  0  0
    4.2742   -7.1850   -5.2418 H   0  0  0  0  0  0  0  0  0  0  0  0
    4.3767   -6.3558   -3.6701 H   0  0  0  0  0  0  0  0  0  0  0  0
    4.4058   -7.6224   -1.5966 H   0  0  0  0  0  0  0  0  0  0  0  0
    4.9739   -9.7565   -0.5077 H   0  0  0  0  0  0  0  0  0  0  0  0
    5.1445  -11.8153   -1.8476 H   0  0  0  0  0  0  0  0  0  0  0  0
    4.7460  -11.7401   -4.2764 H   0  0  0  0  0  0  0  0  0  0  0  0
    4.1733   -9.6068   -5.3646 H   0  0  0  0  0  0  0  0  0  0  0  0
   -0.3124   -5.3027   -5.7057 H   0  0  0  0  0  0  0  0  0  0  0  0
   -0.4514   -3.3526   -7.2015 H   0  0  0  0  0  0  0  0  0  0  0  0
   -0.7911   -2.4345   -9.0525 H   0  0  0  0  0  0  0  0  0  0  0  0
    0.1892   -1.4876   -7.9077 H   0  0  0  0  0  0  0  0  0  0  0  0
    0.2059   -1.0824   -9.6408 H   0  0  0  0  0  0  0  0  0  0  0  0
    4.8897   -5.6047   -8.5247 H   0  0  0  0  0  0  0  0  0  0  0  0
    3.9100   -6.5518   -9.6699 H   0  0  0  0  0  0  0  0  0  0  0  0
    5.0306   -5.3077  -10.2740 H   0  0  0  0  0  0  0  0  0  0  0  0
    3.2435   -6.5825   -7.6822 H   0  0  0  0  0  0  0  0  0  0  0  0
  1  2  1  0
  1 31  1  6
  1 32  1  0
  1 33  1  0
  2  3  1  0
  3  4  1  0
  3 34  1  6
  3 35  1  0
  4  5  1  0
  4 36  1  1
  4 37  1  0
  5  6  1  0
  5 38  1  6
  5 39  1  0
  6  7  1  0
  6 40  1  0
  7  8  2  0
  7  9  1  0
  9 10  1  0
  9 41  1  1
  9 42  1  0
 10 11  1  0
 18 10  1  1
 11 12  1  0
 11 43  1  6
 11 44  1  0
 12 17  2  0
 12 13  1  0
 13 14  2  0
 13 45  1  0
 14 15  1  0
 14 46  1  0
 15 16  2  0
 15 47  1  0
 16 17  1  0
 16 48  1  0
 17 49  1  0
 18 19  2  0
 18 20  2  0
 18 21  1  0
 21 30  2  0
 21 22  1  0
 22 23  2  0
 22 50  1  0
 23 24  1  0
 23 51  1  0
 24 25  1  0
 24 27  2  0
 25 26  1  0
 26 52  1  1
 26 53  1  0
 26 54  1  0
 27 28  1  0
 27 30  1  0
 28 29  1  0
 29 55  1  1
 29 56  1  0
 29 57  1  0
 30 58  1  0
M  END
$$$$
