ZINC000408780524
     RDKit          3D

 53 54  0  0  0  0  0  0  0  0999 V2000
   -0.0173    1.4248    0.0099 C   0  0  1  0  0  0  0  0  0  0  0  0
    0.0021   -0.0041    0.0020 O   0  0  0  0  0  0  0  0  0  0  0  0
    0.6518   -0.5703   -1.1379 C   0  0  1  0  0  0  0  0  0  0  0  0
    0.6131   -2.0967   -1.0411 C   0  0  1  0  0  0  0  0  0  0  0  0
    1.3087   -2.7029   -2.2615 C   0  0  1  0  0  0  0  0  0  0  0  0
    1.2717   -4.1645   -2.1688 N   0  0  0  0  0  0  0  0  0  0  0  0
    1.8279   -4.9157   -3.1398 C   0  0  0  0  0  0  0  0  0  0  0  0
    2.3592   -4.3816   -4.0903 O   0  0  0  0  0  0  0  0  0  0  0  0
    1.7898   -6.4192   -3.0444 C   0  0  1  0  0  0  0  0  0  0  0  0
    2.4559   -6.9996   -4.2130 N   0  0  0  0  0  0  0  0  0  0  0  0
    3.9101   -7.1769   -4.2144 C   0  0  1  0  0  0  0  0  0  0  0  0
    4.2576   -8.4830   -3.5479 C   0  0  0  0  0  0  0  0  0  0  0  0
    4.4804   -8.5254   -2.1843 C   0  0  0  0  0  0  0  0  0  0  0  0
    4.7992   -9.7236   -1.5730 C   0  0  0  0  0  0  0  0  0  0  0  0
    4.8947  -10.8794   -2.3252 C   0  0  0  0  0  0  0  0  0  0  0  0
    4.6711  -10.8372   -3.6886 C   0  0  0  0  0  0  0  0  0  0  0  0
    4.3481   -9.6398   -4.2993 C   0  0  0  0  0  0  0  0  0  0  0  0
    1.5650   -7.4555   -5.5324 S   0  0  1  0  0  0  0  0  0  0  0  0
    2.3330   -8.4366   -6.2157 O   0  0  0  0  0  0  0  0  0  0  0  0
    0.2444   -7.6903   -5.0632 O   0  0  0  0  0  0  0  0  0  0  0  0
    1.4712   -6.0611   -6.6055 C   0  0  0  0  0  0  0  0  0  0  0  0
    0.4372   -5.1536   -6.4708 C   0  0  0  0  0  0  0  0  0  0  0  0
    0.3636   -4.0596   -7.3126 C   0  0  0  0  0  0  0  0  0  0  0  0
    1.3243   -3.8729   -8.2889 C   0  0  0  0  0  0  0  0  0  0  0  0
    1.2438   -2.6805   -9.2069 C   0  0  1  0  0  0  0  0  0  0  0  0
    2.3591   -4.7796   -8.4227 C   0  0  0  0  0  0  0  0  0  0  0  0
    2.4348   -5.8715   -7.5784 C   0  0  0  0  0  0  0  0  0  0  0  0
    1.0053    1.8021    0.0021 H   0  0  0  0  0  0  0  0  0  0  0  0
   -0.5445    1.7859   -0.8732 H   0  0  0  0  0  0  0  0  0  0  0  0
   -0.5275    1.7763    0.9067 H   0  0  0  0  0  0  0  0  0  0  0  0
    0.1385   -0.2506   -2.0447 H   0  0  0  0  0  0  0  0  0  0  0  0
    1.6883   -0.2344   -1.1694 H   0  0  0  0  0  0  0  0  0  0  0  0
    1.1264   -2.4164   -0.1342 H   0  0  0  0  0  0  0  0  0  0  0  0
   -0.4234   -2.4326   -1.0095 H   0  0  0  0  0  0  0  0  0  0  0  0
    0.7954   -2.3833   -3.1684 H   0  0  0  0  0  0  0  0  0  0  0  0
    2.3452   -2.3671   -2.2930 H   0  0  0  0  0  0  0  0  0  0  0  0
    0.8468   -4.5917   -1.4086 H   0  0  0  0  0  0  0  0  0  0  0  0
    2.3031   -6.7389   -2.1376 H   0  0  0  0  0  0  0  0  0  0  0  0
    0.7533   -6.7551   -3.0129 H   0  0  0  0  0  0  0  0  0  0  0  0
    4.2742   -7.1850   -5.2418 H   0  0  0  0  0  0  0  0  0  0  0  0
    4.3767   -6.3558   -3.6701 H   0  0  0  0  0  0  0  0  0  0  0  0
    4.4058   -7.6224   -1.5966 H   0  0  0  0  0  0  0  0  0  0  0  0
    4.9739   -9.7565   -0.5077 H   0  0  0  0  0  0  0  0  0  0  0  0
    5.1445  -11.8153   -1.8476 H   0  0  0  0  0  0  0  0  0  0  0  0
    4.7460  -11.7401   -4.2764 H   0  0  0  0  0  0  0  0  0  0  0  0
    4.1733   -9.6068   -5.3646 H   0  0  0  0  0  0  0  0  0  0  0  0
   -0.3134   -5.2995   -5.7080 H   0  0  0  0  0  0  0  0  0  0  0  0
   -0.4447   -3.3510   -7.2078 H   0  0  0  0  0  0  0  0  0  0  0  0
    1.7898   -1.8459   -8.7672 H   0  0  0  0  0  0  0  0  0  0  0  0
    1.6833   -2.9344  -10.1716 H   0  0  0  0  0  0  0  0  0  0  0  0
    0.2000   -2.3989   -9.3461 H   0  0  0  0  0  0  0  0  0  0  0  0
    3.1098   -4.6335   -9.1852 H   0  0  0  0  0  0  0  0  0  0  0  0
    3.2432   -6.5800   -7.6829 H   0  0  0  0  0  0  0  0  0  0  0  0
  1  2  1  0
  1 28  1  6
  1 29  1  0
  1 30  1  0
  2  3  1  0
  3  4  1  0
  3 31  1  6
  3 32  1  0
  4  5  1  0
  4 33  1  1
  4 34  1  0
  5  6  1  0
  5 35  1  6
  5 36  1  0
  6  7  1  0
  6 37  1  0
  7  8  2  0
  7  9  1  0
  9 10  1  0
  9 38  1  1
  9 39  1  0
 10 11  1  0
 18 10  1  1
 11 12  1  0
 11 40  1  6
 11 41  1  0
 12 17  2  0
 12 13  1  0
 13 14  2  0
 13 42  1  0
 14 15  1  0
 14 43  1  0
 15 16  2  0
 15 44  1  0
 16 17  1  0
 16 45  1  0
 17 46  1  0
 18 19  2  0
 18 20  2  0
 18 21  1  0
 21 27  2  0
 21 22  1  0
 22 23  2  0
 22 47  1  0
 23 24  1  0
 23 48  1  0
 24 25  1  0
 24 26  2  0
 25 49  1  1
 25 50  1  0
 25 51  1  0
 26 27  1  0
 26 52  1  0
 27 53  1  0
M  END
$$$$
