ZINC000408610248
     RDKit          3D

 59 61  0  0  1  0  0  0  0  0999 V2000
   -0.2809    0.6037    0.1870 C   0  0  1  0  0  0  0  0  0  0  0  0
   -0.3716   -0.9028   -0.0641 C   0  0  2  0  0  0  0  0  0  0  0  0
   -1.4174   -1.1911   -0.1704 H   0  0  0  0  0  0  0  0  0  0  0  0
    0.2473   -1.6547    1.1160 C   0  0  1  0  0  0  0  0  0  0  0  0
    0.0458   -3.1592    0.9243 C   0  0  1  0  0  0  0  0  0  0  0  0
    0.6554   -3.8998    2.0866 C   0  0  0  0  0  0  0  0  0  0  0  0
    1.9778   -4.2991    2.0347 C   0  0  0  0  0  0  0  0  0  0  0  0
    2.5370   -4.9784    3.1008 C   0  0  0  0  0  0  0  0  0  0  0  0
    1.7740   -5.2580    4.2191 C   0  0  0  0  0  0  0  0  0  0  0  0
    0.4519   -4.8578    4.2714 C   0  0  0  0  0  0  0  0  0  0  0  0
   -0.1061   -4.1748    3.2070 C   0  0  0  0  0  0  0  0  0  0  0  0
    0.3545   -1.2378   -1.2916 N   0  0  0  0  0  0  0  0  0  0  0  0
   -0.2585   -1.1324   -2.4872 C   0  0  0  0  0  0  0  0  0  0  0  0
   -1.4112   -0.7601   -2.5470 O   0  0  0  0  0  0  0  0  0  0  0  0
    0.4885   -1.4770   -3.7499 C   0  0  1  0  0  0  0  0  0  0  0  0
   -0.3901   -1.2816   -4.9058 N   0  0  0  0  0  0  0  0  0  0  0  0
   -0.5192    0.0461   -5.5115 C   0  0  1  0  0  0  0  0  0  0  0  0
    0.5842    0.2486   -6.5178 C   0  0  0  0  0  0  0  0  0  0  0  0
    0.3385    0.0476   -7.8626 C   0  0  0  0  0  0  0  0  0  0  0  0
    1.3507    0.2333   -8.7861 C   0  0  0  0  0  0  0  0  0  0  0  0
    2.6093    0.6196   -8.3653 C   0  0  0  0  0  0  0  0  0  0  0  0
    2.8575    0.8208   -7.0206 C   0  0  0  0  0  0  0  0  0  0  0  0
    1.8431    0.6416   -6.0957 C   0  0  0  0  0  0  0  0  0  0  0  0
    2.0845    0.8380   -4.7810 F   0  0  0  0  0  0  0  0  0  0  0  0
   -1.2373   -2.5613   -5.5277 S   0  0  1  0  0  0  0  0  0  0  0  0
   -1.4205   -2.2876   -6.9100 O   0  0  0  0  0  0  0  0  0  0  0  0
   -0.6001   -3.7365   -5.0459 O   0  0  0  0  0  0  0  0  0  0  0  0
   -2.8406   -2.5297   -4.7976 C   0  0  0  0  0  0  0  0  0  0  0  0
   -3.0749   -3.2067   -3.6153 C   0  0  0  0  0  0  0  0  0  0  0  0
   -4.3323   -3.1822   -3.0421 C   0  0  0  0  0  0  0  0  0  0  0  0
   -5.3567   -2.4800   -3.6517 C   0  0  0  0  0  0  0  0  0  0  0  0
   -6.9361   -2.4483   -2.9321 Cl  0  0  0  0  0  0  0  0  0  0  0  0
   -5.1216   -1.8026   -4.8350 C   0  0  0  0  0  0  0  0  0  0  0  0
   -3.8623   -1.8231   -5.4043 C   0  0  0  0  0  0  0  0  0  0  0  0
    0.7648    0.8921    0.2933 H   0  0  0  0  0  0  0  0  0  0  0  0
   -0.7219    1.1394   -0.6537 H   0  0  0  0  0  0  0  0  0  0  0  0
   -0.8212    0.8530    1.1003 H   0  0  0  0  0  0  0  0  0  0  0  0
    1.3136   -1.4347    1.1679 H   0  0  0  0  0  0  0  0  0  0  0  0
   -0.2344   -1.3385    2.0412 H   0  0  0  0  0  0  0  0  0  0  0  0
   -1.0205   -3.3792    0.8723 H   0  0  0  0  0  0  0  0  0  0  0  0
    0.5276   -3.4753   -0.0009 H   0  0  0  0  0  0  0  0  0  0  0  0
    2.5740   -4.0807    1.1610 H   0  0  0  0  0  0  0  0  0  0  0  0
    3.5700   -5.2911    3.0600 H   0  0  0  0  0  0  0  0  0  0  0  0
    2.2107   -5.7893    5.0518 H   0  0  0  0  0  0  0  0  0  0  0  0
   -0.1444   -5.0765    5.1449 H   0  0  0  0  0  0  0  0  0  0  0  0
   -1.1391   -3.8621    3.2478 H   0  0  0  0  0  0  0  0  0  0  0  0
    1.2764   -1.5356   -1.2438 H   0  0  0  0  0  0  0  0  0  0  0  0
    1.3613   -0.8309   -3.8436 H   0  0  0  0  0  0  0  0  0  0  0  0
    0.8096   -2.5179   -3.7095 H   0  0  0  0  0  0  0  0  0  0  0  0
   -1.4851    0.1255   -6.0105 H   0  0  0  0  0  0  0  0  0  0  0  0
   -0.4475    0.8081   -4.7354 H   0  0  0  0  0  0  0  0  0  0  0  0
   -0.6443   -0.2549   -8.1925 H   0  0  0  0  0  0  0  0  0  0  0  0
    1.1578    0.0759   -9.8371 H   0  0  0  0  0  0  0  0  0  0  0  0
    3.3993    0.7640   -9.0875 H   0  0  0  0  0  0  0  0  0  0  0  0
    3.8412    1.1220   -6.6919 H   0  0  0  0  0  0  0  0  0  0  0  0
   -2.2753   -3.7551   -3.1396 H   0  0  0  0  0  0  0  0  0  0  0  0
   -4.5153   -3.7115   -2.1186 H   0  0  0  0  0  0  0  0  0  0  0  0
   -5.9209   -1.2545   -5.3115 H   0  0  0  0  0  0  0  0  0  0  0  0
   -3.6786   -1.2941   -6.3277 H   0  0  0  0  0  0  0  0  0  0  0  0
  1  2  1  0
  1 35  1  1
  1 36  1  0
  1 37  1  0
  2  3  1  6
  2  4  1  0
  2 12  1  0
  4  5  1  0
  4 38  1  1
  4 39  1  0
  5  6  1  0
  5 40  1  6
  5 41  1  0
  6 11  2  0
  6  7  1  0
  7  8  2  0
  7 42  1  0
  8  9  1  0
  8 43  1  0
  9 10  2  0
  9 44  1  0
 10 11  1  0
 10 45  1  0
 11 46  1  0
 12 13  1  0
 12 47  1  0
 13 14  2  0
 13 15  1  0
 15 16  1  0
 15 48  1  6
 15 49  1  0
 16 17  1  0
 25 16  1  1
 17 18  1  0
 17 50  1  6
 17 51  1  0
 18 23  2  0
 18 19  1  0
 19 20  2  0
 19 52  1  0
 20 21  1  0
 20 53  1  0
 21 22  2  0
 21 54  1  0
 22 23  1  0
 22 55  1  0
 23 24  1  0
 25 26  2  0
 25 27  2  0
 25 28  1  0
 28 34  2  0
 28 29  1  0
 29 30  2  0
 29 56  1  0
 30 31  1  0
 30 57  1  0
 31 32  1  0
 31 33  2  0
 33 34  1  0
 33 58  1  0
 34 59  1  0
M  END
$$$$
