ZINC000028207812
     RDKit          3D

 62 63  0  0  1  0  0  0  0  0999 V2000
   -0.0187    1.5258    0.0104 C   0  0  1  0  0  0  0  0  0  0  0  0
    0.0021   -0.0041    0.0020 C   0  0  1  0  0  0  0  0  0  0  0  0
   -1.3723   -0.5112    0.0124 N   0  0  0  0  0  0  0  0  0  0  0  0
   -2.1099   -0.6542   -1.2453 C   0  0  1  0  0  0  0  0  0  0  0  0
   -1.7727   -2.0031   -1.8836 C   0  0  1  0  0  0  0  0  0  0  0  0
   -2.0922   -0.9227    1.4458 S   0  0  1  0  0  0  0  0  0  0  0  0
   -3.1196   -1.8512    1.1269 O   0  0  0  0  0  0  0  0  0  0  0  0
   -1.0393   -1.2108    2.3555 O   0  0  0  0  0  0  0  0  0  0  0  0
   -2.8978    0.5199    2.0580 C   0  0  0  0  0  0  0  0  0  0  0  0
   -2.2145    1.3947    2.8819 C   0  0  0  0  0  0  0  0  0  0  0  0
   -2.8438    2.5268    3.3629 C   0  0  0  0  0  0  0  0  0  0  0  0
   -4.1623    2.7852    3.0183 C   0  0  0  0  0  0  0  0  0  0  0  0
   -4.7833    3.8983    3.4897 O   0  0  0  0  0  0  0  0  0  0  0  0
   -4.0182    4.7590    4.3357 C   0  0  1  0  0  0  0  0  0  0  0  0
   -4.8656    5.9316    4.7577 C   0  0  0  0  0  0  0  0  0  0  0  0
   -6.0119    6.0214    4.3719 O   0  0  0  0  0  0  0  0  0  0  0  0
   -4.3495    6.8805    5.5637 N   0  0  0  0  0  0  0  0  0  0  0  0
   -5.1733    8.0205    5.9739 C   0  0  1  0  0  0  0  0  0  0  0  0
   -5.8405    8.2988    5.1582 H   0  0  0  0  0  0  0  0  0  0  0  0
   -6.0015    7.6357    7.2015 C   0  0  1  0  0  0  0  0  0  0  0  0
   -4.2688    9.2050    6.3198 C   0  0  1  0  0  0  0  0  0  0  0  0
   -3.5330    9.6694    5.0614 C   0  0  1  0  0  0  0  0  0  0  0  0
   -2.6422   10.8362    5.4021 C   0  0  0  0  0  0  0  0  0  0  0  0
   -3.1311   12.1265    5.3188 C   0  0  0  0  0  0  0  0  0  0  0  0
   -2.3139   13.1968    5.6313 C   0  0  0  0  0  0  0  0  0  0  0  0
   -1.0080   12.9767    6.0276 C   0  0  0  0  0  0  0  0  0  0  0  0
   -0.5194   11.6863    6.1117 C   0  0  0  0  0  0  0  0  0  0  0  0
   -1.3378   10.6159    5.8033 C   0  0  0  0  0  0  0  0  0  0  0  0
   -4.8460    1.9056    2.1912 C   0  0  0  0  0  0  0  0  0  0  0  0
   -6.2784    2.1836    1.8144 C   0  0  1  0  0  0  0  0  0  0  0  0
   -4.2107    0.7780    1.7088 C   0  0  0  0  0  0  0  0  0  0  0  0
    1.0039    1.9031    0.0027 H   0  0  0  0  0  0  0  0  0  0  0  0
   -0.5459    1.8868   -0.8726 H   0  0  0  0  0  0  0  0  0  0  0  0
   -0.5289    1.8773    0.9072 H   0  0  0  0  0  0  0  0  0  0  0  0
    0.5123   -0.3556   -0.8948 H   0  0  0  0  0  0  0  0  0  0  0  0
    0.5293   -0.3651    0.8851 H   0  0  0  0  0  0  0  0  0  0  0  0
   -3.1804   -0.6037   -1.0465 H   0  0  0  0  0  0  0  0  0  0  0  0
   -1.8283    0.1500   -1.9251 H   0  0  0  0  0  0  0  0  0  0  0  0
   -0.7022   -2.0536   -2.0825 H   0  0  0  0  0  0  0  0  0  0  0  0
   -2.0544   -2.8073   -1.2038 H   0  0  0  0  0  0  0  0  0  0  0  0
   -2.3215   -2.1096   -2.8194 H   0  0  0  0  0  0  0  0  0  0  0  0
   -1.1880    1.1928    3.1502 H   0  0  0  0  0  0  0  0  0  0  0  0
   -2.3096    3.2097    4.0068 H   0  0  0  0  0  0  0  0  0  0  0  0
   -3.6955    4.2075    5.2188 H   0  0  0  0  0  0  0  0  0  0  0  0
   -3.1442    5.1190    3.7928 H   0  0  0  0  0  0  0  0  0  0  0  0
   -3.4327    6.8087    5.8723 H   0  0  0  0  0  0  0  0  0  0  0  0
   -6.6144    8.4838    7.5067 H   0  0  0  0  0  0  0  0  0  0  0  0
   -6.6459    6.7917    6.9550 H   0  0  0  0  0  0  0  0  0  0  0  0
   -5.3343    7.3573    8.0172 H   0  0  0  0  0  0  0  0  0  0  0  0
   -4.8747   10.0232    6.7092 H   0  0  0  0  0  0  0  0  0  0  0  0
   -3.5428    8.8999    7.0735 H   0  0  0  0  0  0  0  0  0  0  0  0
   -2.9272    8.8513    4.6720 H   0  0  0  0  0  0  0  0  0  0  0  0
   -4.2590    9.9745    4.3077 H   0  0  0  0  0  0  0  0  0  0  0  0
   -4.1514   12.2985    5.0092 H   0  0  0  0  0  0  0  0  0  0  0  0
   -2.6957   14.2049    5.5656 H   0  0  0  0  0  0  0  0  0  0  0  0
   -0.3694   13.8129    6.2711 H   0  0  0  0  0  0  0  0  0  0  0  0
    0.5010   11.5144    6.4209 H   0  0  0  0  0  0  0  0  0  0  0  0
   -0.9561    9.6077    5.8690 H   0  0  0  0  0  0  0  0  0  0  0  0
   -6.3051    2.7770    0.9005 H   0  0  0  0  0  0  0  0  0  0  0  0
   -6.8006    1.2409    1.6510 H   0  0  0  0  0  0  0  0  0  0  0  0
   -6.7655    2.7340    2.6194 H   0  0  0  0  0  0  0  0  0  0  0  0
   -4.7423    0.0932    1.0646 H   0  0  0  0  0  0  0  0  0  0  0  0
  1  2  1  0
  1 32  1  6
  1 33  1  0
  1 34  1  0
  2  3  1  0
  2 35  1  6
  2 36  1  0
  3  4  1  0
  6  3  1  6
  4  5  1  0
  4 37  1  1
  4 38  1  0
  5 39  1  6
  5 40  1  0
  5 41  1  0
  6  7  2  0
  6  8  2  0
  6  9  1  0
  9 31  2  0
  9 10  1  0
 10 11  2  0
 10 42  1  0
 11 12  1  0
 11 43  1  0
 12 13  1  0
 12 29  2  0
 13 14  1  0
 14 15  1  0
 14 44  1  1
 14 45  1  0
 15 16  2  0
 15 17  1  0
 17 18  1  0
 17 46  1  0
 18 19  1  6
 18 20  1  0
 18 21  1  0
 20 47  1  1
 20 48  1  0
 20 49  1  0
 21 22  1  0
 21 50  1  1
 21 51  1  0
 22 23  1  0
 22 52  1  6
 22 53  1  0
 23 28  2  0
 23 24  1  0
 24 25  2  0
 24 54  1  0
 25 26  1  0
 25 55  1  0
 26 27  2  0
 26 56  1  0
 27 28  1  0
 27 57  1  0
 28 58  1  0
 29 30  1  0
 29 31  1  0
 30 59  1  6
 30 60  1  0
 30 61  1  0
 31 62  1  0
M  END
$$$$
