ZINC000020781428
     RDKit          3D

 38 39  0  0  1  0  0  0  0  0999 V2000
   -0.0225    1.8097    0.0120 C   0  0  1  0  0  0  0  0  0  0  0  0
    0.0021   -0.0041    0.0020 S   0  0  1  0  0  0  0  0  0  0  0  0
    0.8448   -0.4970    1.0346 O   0  0  0  0  0  0  0  0  0  0  0  0
   -1.3093   -0.5195   -0.1821 O   0  0  0  0  0  0  0  0  0  0  0  0
    0.7961   -0.3989   -1.3965 N   0  0  0  0  0  0  0  0  0  0  0  0
    0.0550   -0.5828   -2.6518 C   0  0  1  0  0  0  0  0  0  0  0  0
    0.4104   -1.9528   -3.2379 C   0  0  1  0  0  0  0  0  0  0  0  0
    1.9299   -2.0624   -3.3834 C   0  0  1  0  0  0  0  0  0  0  0  0
    2.5859   -1.9414   -2.0060 C   0  0  1  0  0  0  0  0  0  0  0  0
    2.2061   -2.7264   -1.3520 H   0  0  0  0  0  0  0  0  0  0  0  0
    4.0797   -2.0826   -2.1462 C   0  0  0  0  0  0  0  0  0  0  0  0
    4.7756   -1.0943   -2.2437 O   0  0  0  0  0  0  0  0  0  0  0  0
    4.6940   -3.4198   -2.1648 C   0  0  0  0  0  0  0  0  0  0  0  0
    3.8943   -4.5621   -2.0584 C   0  0  0  0  0  0  0  0  0  0  0  0
    4.4774   -5.8115   -2.0765 C   0  0  0  0  0  0  0  0  0  0  0  0
    5.8503   -5.9368   -2.1993 C   0  0  0  0  0  0  0  0  0  0  0  0
    6.4793   -7.3061   -2.2183 C   0  0  1  0  0  0  0  0  0  0  0  0
    6.5532   -7.7671   -3.5371 F   0  0  0  0  0  0  0  0  0  0  0  0
    7.7670   -7.2353   -1.6762 F   0  0  0  0  0  0  0  0  0  0  0  0
    5.7015   -8.1871   -1.4592 F   0  0  0  0  0  0  0  0  0  0  0  0
    6.6485   -4.8111   -2.3051 C   0  0  0  0  0  0  0  0  0  0  0  0
    6.0799   -3.5549   -2.2948 C   0  0  0  0  0  0  0  0  0  0  0  0
    2.2558   -0.5658   -1.4070 C   0  0  1  0  0  0  0  0  0  0  0  0
    1.0001    2.1870    0.0043 H   0  0  0  0  0  0  0  0  0  0  0  0
   -0.5497    2.1708   -0.8711 H   0  0  0  0  0  0  0  0  0  0  0  0
   -0.5327    2.1613    0.9088 H   0  0  0  0  0  0  0  0  0  0  0  0
   -1.0159   -0.5367   -2.4539 H   0  0  0  0  0  0  0  0  0  0  0  0
    0.3323    0.1998   -3.3579 H   0  0  0  0  0  0  0  0  0  0  0  0
    0.0511   -2.7377   -2.5723 H   0  0  0  0  0  0  0  0  0  0  0  0
   -0.0576   -2.0624   -4.2163 H   0  0  0  0  0  0  0  0  0  0  0  0
    2.1840   -3.0268   -3.8232 H   0  0  0  0  0  0  0  0  0  0  0  0
    2.2915   -1.2623   -4.0293 H   0  0  0  0  0  0  0  0  0  0  0  0
    2.8229   -4.4660   -1.9618 H   0  0  0  0  0  0  0  0  0  0  0  0
    3.8612   -6.6947   -1.9945 H   0  0  0  0  0  0  0  0  0  0  0  0
    7.7190   -4.9169   -2.4005 H   0  0  0  0  0  0  0  0  0  0  0  0
    6.7041   -2.6774   -2.3774 H   0  0  0  0  0  0  0  0  0  0  0  0
    2.7140    0.2160   -2.0128 H   0  0  0  0  0  0  0  0  0  0  0  0
    2.6361   -0.5106   -0.3870 H   0  0  0  0  0  0  0  0  0  0  0  0
  1  2  1  0
  1 24  1  6
  1 25  1  0
  1 26  1  0
  2  3  2  0
  2  4  2  0
  2  5  1  6
  5 23  1  0
  5  6  1  0
  6  7  1  0
  6 27  1  1
  6 28  1  0
  7  8  1  0
  7 29  1  1
  7 30  1  0
  8  9  1  0
  8 31  1  6
  8 32  1  0
  9 10  1  1
  9 11  1  0
  9 23  1  0
 11 12  2  0
 11 13  1  0
 13 22  2  0
 13 14  1  0
 14 15  2  0
 14 33  1  0
 15 16  1  0
 15 34  1  0
 16 17  1  0
 16 21  2  0
 17 18  1  6
 17 19  1  0
 17 20  1  0
 21 22  1  0
 21 35  1  0
 22 36  1  0
 23 37  1  6
 23 38  1  0
M  END
$$$$
