ZINC000020033064
     RDKit          3D

 62 64  0  0  0  0  0  0  0  0999 V2000
   -0.0178    1.4608    0.0101 C   0  0  1  0  0  0  0  0  0  0  0  0
    0.0021   -0.0041    0.0020 N   0  0  0  0  0  0  0  0  0  0  0  0
    1.2806   -0.7192   -0.0140 C   0  0  1  0  0  0  0  0  0  0  0  0
   -1.4206   -0.8515    0.0111 S   0  0  1  0  0  0  0  0  0  0  0  0
   -1.1207   -2.1334    0.5458 O   0  0  0  0  0  0  0  0  0  0  0  0
   -2.3996    0.0139    0.5695 O   0  0  0  0  0  0  0  0  0  0  0  0
   -1.8848   -1.1094   -1.6690 C   0  0  0  0  0  0  0  0  0  0  0  0
   -2.6748   -0.1792   -2.3184 C   0  0  0  0  0  0  0  0  0  0  0  0
   -3.0389   -0.3815   -3.6365 C   0  0  0  0  0  0  0  0  0  0  0  0
   -2.6127   -1.5137   -4.3053 C   0  0  0  0  0  0  0  0  0  0  0  0
   -3.0101   -1.7345   -5.7421 C   0  0  1  0  0  0  0  0  0  0  0  0
   -1.9620   -1.1071   -6.6634 C   0  0  1  0  0  0  0  0  0  0  0  0
   -2.3594   -1.3279   -8.1002 C   0  0  0  0  0  0  0  0  0  0  0  0
   -3.3804   -1.9280   -8.3616 O   0  0  0  0  0  0  0  0  0  0  0  0
   -1.5802   -0.8585   -9.0946 N   0  0  0  0  0  0  0  0  0  0  0  0
   -1.9665   -1.0732  -10.4914 C   0  0  1  0  0  0  0  0  0  0  0  0
   -0.9341   -0.4552  -11.3988 C   0  0  0  0  0  0  0  0  0  0  0  0
   -1.0661    0.8609  -11.8005 C   0  0  0  0  0  0  0  0  0  0  0  0
   -0.1191    1.4277  -12.6328 C   0  0  0  0  0  0  0  0  0  0  0  0
    0.9601    0.6787  -13.0631 C   0  0  0  0  0  0  0  0  0  0  0  0
    2.1668    1.4010  -14.1245 S   0  0  1  0  0  0  0  0  0  0  0  0
    2.7887    0.3261  -14.8152 O   0  0  0  0  0  0  0  0  0  0  0  0
    1.5238    2.4817  -14.7862 O   0  0  0  0  0  0  0  0  0  0  0  0
    3.3318    2.0716  -13.1573 N   0  0  0  0  0  0  0  0  0  0  0  0
    3.2232    3.4645  -12.6952 C   0  0  1  0  0  0  0  0  0  0  0  0
    3.4290    3.4874  -11.1763 C   0  0  1  0  0  0  0  0  0  0  0  0
    4.6436    2.8050  -10.8555 O   0  0  0  0  0  0  0  0  0  0  0  0
    4.6493    1.4209  -11.2133 C   0  0  1  0  0  0  0  0  0  0  0  0
    4.5032    1.2903  -12.7295 C   0  0  1  0  0  0  0  0  0  0  0  0
    1.0928   -0.6370  -12.6602 C   0  0  0  0  0  0  0  0  0  0  0  0
    0.1478   -1.2027  -11.8248 C   0  0  0  0  0  0  0  0  0  0  0  0
   -1.8217   -2.4432   -3.6564 C   0  0  0  0  0  0  0  0  0  0  0  0
   -1.4543   -2.2390   -2.3395 C   0  0  0  0  0  0  0  0  0  0  0  0
    1.0048    1.8381    0.0023 H   0  0  0  0  0  0  0  0  0  0  0  0
   -0.5450    1.8219   -0.8730 H   0  0  0  0  0  0  0  0  0  0  0  0
   -0.5280    1.8123    0.9069 H   0  0  0  0  0  0  0  0  0  0  0  0
    1.6074   -0.9021    1.0096 H   0  0  0  0  0  0  0  0  0  0  0  0
    1.1583   -1.6705   -0.5318 H   0  0  0  0  0  0  0  0  0  0  0  0
    2.0272   -0.1171   -0.5318 H   0  0  0  0  0  0  0  0  0  0  0  0
   -3.0077    0.7053   -1.7959 H   0  0  0  0  0  0  0  0  0  0  0  0
   -3.6567    0.3448   -4.1436 H   0  0  0  0  0  0  0  0  0  0  0  0
   -3.0749   -2.8043   -5.9409 H   0  0  0  0  0  0  0  0  0  0  0  0
   -3.9795   -1.2714   -5.9263 H   0  0  0  0  0  0  0  0  0  0  0  0
   -1.8972   -0.0374   -6.4646 H   0  0  0  0  0  0  0  0  0  0  0  0
   -0.9926   -1.5702   -6.4793 H   0  0  0  0  0  0  0  0  0  0  0  0
   -0.7636   -0.3786   -8.8855 H   0  0  0  0  0  0  0  0  0  0  0  0
   -2.0313   -2.1429  -10.6902 H   0  0  0  0  0  0  0  0  0  0  0  0
   -2.9359   -0.6101  -10.6755 H   0  0  0  0  0  0  0  0  0  0  0  0
   -1.9092    1.4461  -11.4644 H   0  0  0  0  0  0  0  0  0  0  0  0
   -0.2226    2.4558  -12.9473 H   0  0  0  0  0  0  0  0  0  0  0  0
    3.9881    4.0723  -13.1785 H   0  0  0  0  0  0  0  0  0  0  0  0
    2.2352    3.8557  -12.9377 H   0  0  0  0  0  0  0  0  0  0  0  0
    3.4900    4.5201  -10.8327 H   0  0  0  0  0  0  0  0  0  0  0  0
    2.5916    2.9892  -10.6878 H   0  0  0  0  0  0  0  0  0  0  0  0
    5.5882    0.9668  -10.8963 H   0  0  0  0  0  0  0  0  0  0  0  0
    3.8163    0.9152  -10.7250 H   0  0  0  0  0  0  0  0  0  0  0  0
    4.3647    0.2426  -12.9961 H   0  0  0  0  0  0  0  0  0  0  0  0
    5.3958    1.6794  -13.2192 H   0  0  0  0  0  0  0  0  0  0  0  0
    1.9361   -1.2222  -12.9961 H   0  0  0  0  0  0  0  0  0  0  0  0
    0.2515   -2.2306  -11.5101 H   0  0  0  0  0  0  0  0  0  0  0  0
   -1.4884   -3.3276   -4.1790 H   0  0  0  0  0  0  0  0  0  0  0  0
   -0.8363   -2.9652   -1.8324 H   0  0  0  0  0  0  0  0  0  0  0  0
  1  2  1  0
  1 34  1  6
  1 35  1  0
  1 36  1  0
  2  3  1  0
  4  2  1  6
  3 37  1  1
  3 38  1  0
  3 39  1  0
  4  5  2  0
  4  6  2  0
  4  7  1  0
  7 33  2  0
  7  8  1  0
  8  9  2  0
  8 40  1  0
  9 10  1  0
  9 41  1  0
 10 11  1  0
 10 32  2  0
 11 12  1  0
 11 42  1  6
 11 43  1  0
 12 13  1  0
 12 44  1  1
 12 45  1  0
 13 14  2  0
 13 15  1  0
 15 16  1  0
 15 46  1  0
 16 17  1  0
 16 47  1  6
 16 48  1  0
 17 31  2  0
 17 18  1  0
 18 19  2  0
 18 49  1  0
 19 20  1  0
 19 50  1  0
 20 21  1  0
 20 30  2  0
 21 22  2  0
 21 23  2  0
 21 24  1  1
 24 29  1  0
 24 25  1  0
 25 26  1  0
 25 51  1  6
 25 52  1  0
 26 27  1  0
 26 53  1  1
 26 54  1  0
 27 28  1  0
 28 29  1  0
 28 55  1  1
 28 56  1  0
 29 57  1  1
 29 58  1  0
 30 31  1  0
 30 59  1  0
 31 60  1  0
 32 33  1  0
 32 61  1  0
 33 62  1  0
M  END
$$$$
