ZINC000097166177
     RDKit          3D

 37 38  0  0  1  0  0  0  0  0999 V2000
    0.1735    1.8671    0.2407 C   0  0  1  0  0  0  0  0  0  0  0  0
   -0.0943    0.3708    0.0667 C   0  0  1  0  0  0  0  0  0  0  0  0
   -1.6008    0.1052    0.0965 C   0  0  1  0  0  0  0  0  0  0  0  0
   -2.2344    0.8368   -0.9548 O   0  0  0  0  0  0  0  0  0  0  0  0
    0.5015   -0.1170   -1.2707 C   0  0  1  0  0  0  0  0  0  0  0  0
    1.8683   -0.7150   -0.8446 C   0  0  1  0  0  0  0  0  0  0  0  0
    1.5225   -1.3298    0.5346 C   0  0  1  0  0  0  0  0  0  0  0  0
    0.5678   -0.3839    1.1407 N   0  0  0  0  0  0  0  0  0  0  0  0
    0.2880   -0.2014    2.7626 S   0  0  1  0  0  0  0  0  0  0  0  0
   -1.0778    0.1677    2.8952 O   0  0  0  0  0  0  0  0  0  0  0  0
    0.8501   -1.3417    3.3976 O   0  0  0  0  0  0  0  0  0  0  0  0
    1.2326    1.1847    3.3021 C   0  0  0  0  0  0  0  0  0  0  0  0
    0.5931    2.3332    3.7283 C   0  0  0  0  0  0  0  0  0  0  0  0
    1.3342    3.4210    4.1517 C   0  0  0  0  0  0  0  0  0  0  0  0
    0.6361    4.6731    4.6163 C   0  0  1  0  0  0  0  0  0  0  0  0
    0.4021    4.5929    5.9933 F   0  0  0  0  0  0  0  0  0  0  0  0
    1.4413    5.7843    4.3441 F   0  0  0  0  0  0  0  0  0  0  0  0
   -0.5831    4.8045    3.9430 F   0  0  0  0  0  0  0  0  0  0  0  0
    2.7151    3.3602    4.1493 C   0  0  0  0  0  0  0  0  0  0  0  0
    3.3559    2.2119    3.7231 C   0  0  0  0  0  0  0  0  0  0  0  0
    2.6149    1.1214    3.3045 C   0  0  0  0  0  0  0  0  0  0  0  0
    3.4191   -0.3210    2.7692 Cl  0  0  0  0  0  0  0  0  0  0  0  0
    1.2471    2.0511    0.2004 H   0  0  0  0  0  0  0  0  0  0  0  0
   -0.3201    2.4199   -0.5585 H   0  0  0  0  0  0  0  0  0  0  0  0
   -0.2156    2.1962    1.2042 H   0  0  0  0  0  0  0  0  0  0  0  0
   -1.7847   -0.9604   -0.0404 H   0  0  0  0  0  0  0  0  0  0  0  0
   -2.0069    0.4236    1.0566 H   0  0  0  0  0  0  0  0  0  0  0  0
   -3.1929    0.7156   -0.9961 H   0  0  0  0  0  0  0  0  0  0  0  0
   -0.1317   -0.8829   -1.7185 H   0  0  0  0  0  0  0  0  0  0  0  0
    0.6429    0.7178   -1.9572 H   0  0  0  0  0  0  0  0  0  0  0  0
    2.1935   -1.4844   -1.5448 H   0  0  0  0  0  0  0  0  0  0  0  0
    2.6227    0.0656   -0.7463 H   0  0  0  0  0  0  0  0  0  0  0  0
    1.0588   -2.3081    0.4083 H   0  0  0  0  0  0  0  0  0  0  0  0
    2.4188   -1.4104    1.1495 H   0  0  0  0  0  0  0  0  0  0  0  0
   -0.4858    2.3812    3.7304 H   0  0  0  0  0  0  0  0  0  0  0  0
    3.2934    4.2102    4.4800 H   0  0  0  0  0  0  0  0  0  0  0  0
    4.4349    2.1646    3.7213 H   0  0  0  0  0  0  0  0  0  0  0  0
  1 23  1  1
  1 24  1  0
  1 25  1  0
  2  1  1  0
  2  8  1  1
  2  3  1  0
  2  5  1  0
  3  4  1  0
  3 26  1  6
  3 27  1  0
  4 28  1  0
  5  6  1  0
  5 29  1  6
  5 30  1  0
  6  7  1  0
  6 31  1  6
  6 32  1  0
  7  8  1  0
  7 33  1  6
  7 34  1  0
  9  8  1  6
  9 10  2  0
  9 11  2  0
  9 12  1  0
 12 21  2  0
 12 13  1  0
 13 14  2  0
 13 35  1  0
 14 15  1  0
 14 19  1  0
 15 16  1  1
 15 17  1  0
 15 18  1  0
 19 20  2  0
 19 36  1  0
 20 21  1  0
 20 37  1  0
 21 22  1  0
M  END
$$$$
