ZINC000000798130
     RDKit          3D

 40 41  0  0  0  0  0  0  0  0999 V2000
   -0.0262    1.8364    0.0037 C   0  0  1  0  0  0  0  0  0  0  0  0
    0.0027    0.0226    0.0065 S   0  0  1  0  0  0  0  0  0  0  0  0
    0.8463   -0.4611    1.0426 O   0  0  0  0  0  0  0  0  0  0  0  0
   -1.3074   -0.4972   -0.1743 O   0  0  0  0  0  0  0  0  0  0  0  0
    0.7980   -0.3801   -1.3891 N   0  0  0  0  0  0  0  0  0  0  0  0
    0.0576   -0.5747   -2.6432 C   0  0  1  0  0  0  0  0  0  0  0  0
    0.6764    0.3167   -3.7245 C   0  0  1  0  0  0  0  0  0  0  0  0
    2.1747    0.0221   -3.8270 C   0  0  1  0  0  0  0  0  0  0  0  0
    2.7805    0.8729   -4.9133 C   0  0  0  0  0  0  0  0  0  0  0  0
    2.0829    1.6393   -5.5434 O   0  0  0  0  0  0  0  0  0  0  0  0
    4.0975    0.7823   -5.1847 N   0  0  0  0  0  0  0  0  0  0  0  0
    4.6422    1.4993   -6.2558 C   0  0  0  0  0  0  0  0  0  0  0  0
    5.6746    0.9520   -7.0062 C   0  0  0  0  0  0  0  0  0  0  0  0
    6.2100    1.6623   -8.0627 C   0  0  0  0  0  0  0  0  0  0  0  0
    5.7195    2.9173   -8.3733 C   0  0  0  0  0  0  0  0  0  0  0  0
    6.3064    3.6898   -9.5265 C   0  0  1  0  0  0  0  0  0  0  0  0
    5.6063    3.3825  -10.6981 F   0  0  0  0  0  0  0  0  0  0  0  0
    6.2052    5.0611   -9.2689 F   0  0  0  0  0  0  0  0  0  0  0  0
    7.6526    3.3429   -9.6832 F   0  0  0  0  0  0  0  0  0  0  0  0
    4.6912    3.4649   -7.6284 C   0  0  0  0  0  0  0  0  0  0  0  0
    4.1476    2.7573   -6.5742 C   0  0  0  0  0  0  0  0  0  0  0  0
    2.8516    0.3415   -2.4921 C   0  0  1  0  0  0  0  0  0  0  0  0
    2.2581   -0.5437   -1.3981 C   0  0  1  0  0  0  0  0  0  0  0  0
    0.9955    2.2160   -0.0064 H   0  0  0  0  0  0  0  0  0  0  0  0
   -0.5540    2.1900   -0.8820 H   0  0  0  0  0  0  0  0  0  0  0  0
   -0.5374    2.1930    0.8979 H   0  0  0  0  0  0  0  0  0  0  0  0
    0.1239   -1.6190   -2.9484 H   0  0  0  0  0  0  0  0  0  0  0  0
   -0.9871   -0.3002   -2.4971 H   0  0  0  0  0  0  0  0  0  0  0  0
    0.1989    0.1112   -4.6825 H   0  0  0  0  0  0  0  0  0  0  0  0
    0.5288    1.3640   -3.4611 H   0  0  0  0  0  0  0  0  0  0  0  0
    2.3222   -1.0311   -4.0659 H   0  0  0  0  0  0  0  0  0  0  0  0
    4.6679    0.2199   -4.6375 H   0  0  0  0  0  0  0  0  0  0  0  0
    6.0587   -0.0278   -6.7636 H   0  0  0  0  0  0  0  0  0  0  0  0
    7.0130    1.2373   -8.6467 H   0  0  0  0  0  0  0  0  0  0  0  0
    4.3102    4.4453   -7.8735 H   0  0  0  0  0  0  0  0  0  0  0  0
    3.3445    3.1854   -5.9927 H   0  0  0  0  0  0  0  0  0  0  0  0
    3.9222    0.1536   -2.5729 H   0  0  0  0  0  0  0  0  0  0  0  0
    2.6834    1.3886   -2.2402 H   0  0  0  0  0  0  0  0  0  0  0  0
    2.6658   -0.2515   -0.4304 H   0  0  0  0  0  0  0  0  0  0  0  0
    2.5018   -1.5868   -1.5997 H   0  0  0  0  0  0  0  0  0  0  0  0
  1  2  1  0
  1 24  1  6
  1 25  1  0
  1 26  1  0
  2  3  2  0
  2  4  2  0
  2  5  1  6
  5 23  1  0
  5  6  1  0
  6  7  1  0
  6 27  1  6
  6 28  1  0
  7  8  1  0
  7 29  1  6
  7 30  1  0
  8  9  1  0
  8 22  1  0
  8 31  1  6
  9 10  2  0
  9 11  1  0
 11 12  1  0
 11 32  1  0
 12 21  2  0
 12 13  1  0
 13 14  2  0
 13 33  1  0
 14 15  1  0
 14 34  1  0
 15 16  1  0
 15 20  2  0
 16 17  1  6
 16 18  1  0
 16 19  1  0
 20 21  1  0
 20 35  1  0
 21 36  1  0
 22 23  1  0
 22 37  1  6
 22 38  1  0
 23 39  1  1
 23 40  1  0
M  END
$$$$
