ZINC000408621053
     RDKit          3D

 53 54  0  0  1  0  0  0  0  0999 V2000
   -0.0173    1.4248    0.0099 C   0  0  1  0  0  0  0  0  0  0  0  0
    0.0021   -0.0041    0.0020 O   0  0  0  0  0  0  0  0  0  0  0  0
    0.6518   -0.5703   -1.1379 C   0  0  1  0  0  0  0  0  0  0  0  0
    0.6131   -2.0967   -1.0411 C   0  0  1  0  0  0  0  0  0  0  0  0
    1.1847   -2.5275   -1.8631 H   0  0  0  0  0  0  0  0  0  0  0  0
    1.2226   -2.5389    0.2908 C   0  0  1  0  0  0  0  0  0  0  0  0
   -0.7759   -2.5559   -1.1188 N   0  0  0  0  0  0  0  0  0  0  0  0
   -1.0505   -3.8014   -1.5545 C   0  0  0  0  0  0  0  0  0  0  0  0
   -0.1478   -4.5420   -1.8822 O   0  0  0  0  0  0  0  0  0  0  0  0
   -2.4794   -4.2737   -1.6345 C   0  0  1  0  0  0  0  0  0  0  0  0
   -2.5113   -5.6507   -2.1337 N   0  0  0  0  0  0  0  0  0  0  0  0
   -2.3406   -6.7707   -1.2049 C   0  0  1  0  0  0  0  0  0  0  0  0
   -3.6703   -7.1173   -0.5862 C   0  0  0  0  0  0  0  0  0  0  0  0
   -4.0693   -6.5010    0.5851 C   0  0  0  0  0  0  0  0  0  0  0  0
   -5.2890   -6.8190    1.1527 C   0  0  0  0  0  0  0  0  0  0  0  0
   -6.1099   -7.7528    0.5487 C   0  0  0  0  0  0  0  0  0  0  0  0
   -7.4394   -8.0998    1.1676 C   0  0  1  0  0  0  0  0  0  0  0  0
   -5.7116   -8.3681   -0.6234 C   0  0  0  0  0  0  0  0  0  0  0  0
   -4.4936   -8.0473   -1.1930 C   0  0  0  0  0  0  0  0  0  0  0  0
   -2.7403   -5.9412   -3.7479 S   0  0  1  0  0  0  0  0  0  0  0  0
   -3.4052   -7.1936   -3.8398 O   0  0  0  0  0  0  0  0  0  0  0  0
   -3.2629   -4.7413   -4.3013 O   0  0  0  0  0  0  0  0  0  0  0  0
   -1.1483   -6.1690   -4.4678 C   0  0  0  0  0  0  0  0  0  0  0  0
   -0.4532   -5.0830   -4.9661 C   0  0  0  0  0  0  0  0  0  0  0  0
    0.7957   -5.2617   -5.5309 C   0  0  0  0  0  0  0  0  0  0  0  0
    1.3499   -6.5264   -5.5970 C   0  0  0  0  0  0  0  0  0  0  0  0
    0.6552   -7.6123   -5.0978 C   0  0  0  0  0  0  0  0  0  0  0  0
   -0.5919   -7.4330   -4.5291 C   0  0  0  0  0  0  0  0  0  0  0  0
    1.0053    1.8021    0.0021 H   0  0  0  0  0  0  0  0  0  0  0  0
   -0.5445    1.7859   -0.8732 H   0  0  0  0  0  0  0  0  0  0  0  0
   -0.5275    1.7763    0.9067 H   0  0  0  0  0  0  0  0  0  0  0  0
    0.1385   -0.2506   -2.0447 H   0  0  0  0  0  0  0  0  0  0  0  0
    1.6883   -0.2344   -1.1694 H   0  0  0  0  0  0  0  0  0  0  0  0
    2.2560   -2.1973    0.3487 H   0  0  0  0  0  0  0  0  0  0  0  0
    0.6509   -2.1081    1.1128 H   0  0  0  0  0  0  0  0  0  0  0  0
    1.1950   -3.6264    0.3598 H   0  0  0  0  0  0  0  0  0  0  0  0
   -1.4979   -1.9635   -0.8568 H   0  0  0  0  0  0  0  0  0  0  0  0
   -2.9305   -4.2361   -0.6430 H   0  0  0  0  0  0  0  0  0  0  0  0
   -3.0379   -3.6284   -2.3125 H   0  0  0  0  0  0  0  0  0  0  0  0
   -1.9549   -7.6352   -1.7451 H   0  0  0  0  0  0  0  0  0  0  0  0
   -1.6376   -6.4888   -0.4210 H   0  0  0  0  0  0  0  0  0  0  0  0
   -3.4279   -5.7714    1.0570 H   0  0  0  0  0  0  0  0  0  0  0  0
   -5.6004   -6.3380    2.0682 H   0  0  0  0  0  0  0  0  0  0  0  0
   -8.2086   -7.4365    0.7719 H   0  0  0  0  0  0  0  0  0  0  0  0
   -7.6927   -9.1328    0.9293 H   0  0  0  0  0  0  0  0  0  0  0  0
   -7.3786   -7.9809    2.2494 H   0  0  0  0  0  0  0  0  0  0  0  0
   -6.3532   -9.0974   -1.0955 H   0  0  0  0  0  0  0  0  0  0  0  0
   -4.1823   -8.5280   -2.1087 H   0  0  0  0  0  0  0  0  0  0  0  0
   -0.8861   -4.0949   -4.9145 H   0  0  0  0  0  0  0  0  0  0  0  0
    1.3385   -4.4133   -5.9209 H   0  0  0  0  0  0  0  0  0  0  0  0
    2.3254   -6.6661   -6.0389 H   0  0  0  0  0  0  0  0  0  0  0  0
    1.0880   -8.6004   -5.1497 H   0  0  0  0  0  0  0  0  0  0  0  0
   -1.1346   -8.2813   -4.1392 H   0  0  0  0  0  0  0  0  0  0  0  0
  1  2  1  0
  1 29  1  6
  1 30  1  0
  1 31  1  0
  2  3  1  0
  3  4  1  0
  3 32  1  6
  3 33  1  0
  4  5  1  6
  4  6  1  0
  4  7  1  0
  6 34  1  6
  6 35  1  0
  6 36  1  0
  7  8  1  0
  7 37  1  0
  8  9  2  0
  8 10  1  0
 10 11  1  0
 10 38  1  1
 10 39  1  0
 11 12  1  0
 20 11  1  1
 12 13  1  0
 12 40  1  6
 12 41  1  0
 13 19  2  0
 13 14  1  0
 14 15  2  0
 14 42  1  0
 15 16  1  0
 15 43  1  0
 16 17  1  0
 16 18  2  0
 17 44  1  6
 17 45  1  0
 17 46  1  0
 18 19  1  0
 18 47  1  0
 19 48  1  0
 20 21  2  0
 20 22  2  0
 20 23  1  0
 23 28  2  0
 23 24  1  0
 24 25  2  0
 24 49  1  0
 25 26  1  0
 25 50  1  0
 26 27  2  0
 26 51  1  0
 27 28  1  0
 27 52  1  0
 28 53  1  0
M  END
$$$$
