ZINC000158195753
     RDKit          3D

 41 42  0  0  1  0  0  0  0  0999 V2000
    0.6170    1.3333    0.4192 C   0  0  1  0  0  0  0  0  0  0  0  0
    0.0020   -0.0041    0.0020 C   0  0  2  0  0  0  0  0  0  0  0  0
   -1.0747    0.1134   -0.1198 H   0  0  0  0  0  0  0  0  0  0  0  0
    0.2708   -1.0109    1.0375 N   0  0  1  0  0  0  0  0  0  0  0  0
   -0.1358   -0.7117    1.9111 H   0  0  0  0  0  0  0  0  0  0  0  0
   -0.1348   -1.8929    0.7623 H   0  0  0  0  0  0  0  0  0  0  0  0
    1.2675   -1.1196    1.1502 H   0  0  0  0  0  0  0  0  0  0  0  0
    0.6094   -0.4510   -1.3028 C   0  0  0  0  0  0  0  0  0  0  0  0
    1.5671   -1.1951   -1.3025 O   0  0  0  0  0  0  0  0  0  0  0  0
    0.0882   -0.0238   -2.4700 N   0  0  0  0  0  0  0  0  0  0  0  0
   -0.9968    0.9667   -2.4874 C   0  0  1  0  0  0  0  0  0  0  0  0
   -0.5843    2.1341   -3.3895 C   0  0  1  0  0  0  0  0  0  0  0  0
   -0.2021    1.5962   -4.7703 C   0  0  1  0  0  0  0  0  0  0  0  0
    0.1717    2.7453   -5.6709 C   0  0  0  0  0  0  0  0  0  0  0  0
    1.2281    3.5712   -5.3351 C   0  0  0  0  0  0  0  0  0  0  0  0
    1.5710    4.6252   -6.1612 C   0  0  0  0  0  0  0  0  0  0  0  0
    0.8579    4.8530   -7.3232 C   0  0  0  0  0  0  0  0  0  0  0  0
    1.2314    6.0023   -8.2235 C   0  0  1  0  0  0  0  0  0  0  0  0
    2.1735    5.5712   -9.1636 F   0  0  0  0  0  0  0  0  0  0  0  0
    0.0898    6.4657   -8.8862 F   0  0  0  0  0  0  0  0  0  0  0  0
    1.7777    7.0370   -7.4566 F   0  0  0  0  0  0  0  0  0  0  0  0
   -0.1977    4.0262   -7.6597 C   0  0  0  0  0  0  0  0  0  0  0  0
   -0.5381    2.9699   -6.8356 C   0  0  0  0  0  0  0  0  0  0  0  0
    0.9889    0.6444   -4.6371 C   0  0  1  0  0  0  0  0  0  0  0  0
    0.5983   -0.5353   -3.7494 C   0  0  1  0  0  0  0  0  0  0  0  0
    1.6929    1.2143    0.5470 H   0  0  0  0  0  0  0  0  0  0  0  0
    0.4229    2.0788   -0.3520 H   0  0  0  0  0  0  0  0  0  0  0  0
    0.1733    1.6596    1.3598 H   0  0  0  0  0  0  0  0  0  0  0  0
   -1.9051    0.5070   -2.8771 H   0  0  0  0  0  0  0  0  0  0  0  0
   -1.1746    1.3317   -1.4758 H   0  0  0  0  0  0  0  0  0  0  0  0
   -1.4175    2.8299   -3.4879 H   0  0  0  0  0  0  0  0  0  0  0  0
    0.2702    2.6489   -2.9503 H   0  0  0  0  0  0  0  0  0  0  0  0
   -1.0491    1.0601   -5.1983 H   0  0  0  0  0  0  0  0  0  0  0  0
    1.7853    3.3933   -4.4272 H   0  0  0  0  0  0  0  0  0  0  0  0
    2.3959    5.2709   -5.8985 H   0  0  0  0  0  0  0  0  0  0  0  0
   -0.7546    4.2039   -8.5678 H   0  0  0  0  0  0  0  0  0  0  0  0
   -1.3628    2.3239   -7.0984 H   0  0  0  0  0  0  0  0  0  0  0  0
    1.2753    0.2799   -5.6236 H   0  0  0  0  0  0  0  0  0  0  0  0
    1.8286    1.1732   -4.1862 H   0  0  0  0  0  0  0  0  0  0  0  0
    1.4712   -1.1634   -3.5714 H   0  0  0  0  0  0  0  0  0  0  0  0
   -0.1807   -1.1193   -4.2395 H   0  0  0  0  0  0  0  0  0  0  0  0
  1  2  1  0
  1 26  1  1
  1 27  1  0
  1 28  1  0
  2  3  1  6
  2  4  1  0
  2  8  1  0
  4  5  1  1
  4  6  1  0
  4  7  1  0
  8  9  2  0
  8 10  1  0
 10 25  1  0
 10 11  1  0
 11 12  1  0
 11 29  1  6
 11 30  1  0
 12 13  1  0
 12 31  1  6
 12 32  1  0
 13 14  1  0
 13 24  1  0
 13 33  1  6
 14 23  2  0
 14 15  1  0
 15 16  2  0
 15 34  1  0
 16 17  1  0
 16 35  1  0
 17 18  1  0
 17 22  2  0
 18 19  1  6
 18 20  1  0
 18 21  1  0
 22 23  1  0
 22 36  1  0
 23 37  1  0
 24 25  1  0
 24 38  1  6
 24 39  1  0
 25 40  1  1
 25 41  1  0
M  CHG  1   4   1
M  END
$$$$
