ZINC000408621453
     RDKit          3D

 50 51  0  0  1  0  0  0  0  0999 V2000
   -0.0173    1.4248    0.0099 C   0  0  1  0  0  0  0  0  0  0  0  0
    0.0021   -0.0041    0.0020 O   0  0  0  0  0  0  0  0  0  0  0  0
    0.6518   -0.5703   -1.1379 C   0  0  1  0  0  0  0  0  0  0  0  0
    0.6131   -2.0967   -1.0411 C   0  0  1  0  0  0  0  0  0  0  0  0
    1.1847   -2.5275   -1.8631 H   0  0  0  0  0  0  0  0  0  0  0  0
    1.2226   -2.5389    0.2908 C   0  0  1  0  0  0  0  0  0  0  0  0
   -0.7759   -2.5559   -1.1188 N   0  0  0  0  0  0  0  0  0  0  0  0
   -1.0505   -3.8014   -1.5545 C   0  0  0  0  0  0  0  0  0  0  0  0
   -0.1478   -4.5420   -1.8822 O   0  0  0  0  0  0  0  0  0  0  0  0
   -2.4794   -4.2737   -1.6345 C   0  0  1  0  0  0  0  0  0  0  0  0
   -2.5113   -5.6507   -2.1337 N   0  0  0  0  0  0  0  0  0  0  0  0
   -2.3406   -6.7707   -1.2049 C   0  0  1  0  0  0  0  0  0  0  0  0
   -3.6703   -7.1173   -0.5862 C   0  0  0  0  0  0  0  0  0  0  0  0
   -4.0690   -6.5008    0.5852 C   0  0  0  0  0  0  0  0  0  0  0  0
   -5.2884   -6.8183    1.1531 C   0  0  0  0  0  0  0  0  0  0  0  0
   -6.1101   -7.7532    0.5491 C   0  0  0  0  0  0  0  0  0  0  0  0
   -7.6421   -8.1521    1.2615 Cl  0  0  0  0  0  0  0  0  0  0  0  0
   -5.7105   -8.3698   -0.6232 C   0  0  0  0  0  0  0  0  0  0  0  0
   -4.4934   -8.0474   -1.1932 C   0  0  0  0  0  0  0  0  0  0  0  0
   -2.7403   -5.9412   -3.7479 S   0  0  1  0  0  0  0  0  0  0  0  0
   -3.4052   -7.1936   -3.8398 O   0  0  0  0  0  0  0  0  0  0  0  0
   -3.2629   -4.7413   -4.3013 O   0  0  0  0  0  0  0  0  0  0  0  0
   -1.1483   -6.1690   -4.4678 C   0  0  0  0  0  0  0  0  0  0  0  0
   -0.4534   -5.0827   -4.9661 C   0  0  0  0  0  0  0  0  0  0  0  0
    0.7954   -5.2608   -5.5309 C   0  0  0  0  0  0  0  0  0  0  0  0
    1.3500   -6.5265   -5.5976 C   0  0  0  0  0  0  0  0  0  0  0  0
    2.9188   -6.7509   -6.3064 Cl  0  0  0  0  0  0  0  0  0  0  0  0
    0.6542   -7.6133   -5.0987 C   0  0  0  0  0  0  0  0  0  0  0  0
   -0.5922   -7.4331   -4.5290 C   0  0  0  0  0  0  0  0  0  0  0  0
    1.0053    1.8021    0.0021 H   0  0  0  0  0  0  0  0  0  0  0  0
   -0.5445    1.7859   -0.8732 H   0  0  0  0  0  0  0  0  0  0  0  0
   -0.5275    1.7763    0.9067 H   0  0  0  0  0  0  0  0  0  0  0  0
    0.1385   -0.2506   -2.0447 H   0  0  0  0  0  0  0  0  0  0  0  0
    1.6883   -0.2344   -1.1694 H   0  0  0  0  0  0  0  0  0  0  0  0
    2.2560   -2.1973    0.3487 H   0  0  0  0  0  0  0  0  0  0  0  0
    0.6509   -2.1081    1.1128 H   0  0  0  0  0  0  0  0  0  0  0  0
    1.1950   -3.6264    0.3598 H   0  0  0  0  0  0  0  0  0  0  0  0
   -1.4979   -1.9635   -0.8568 H   0  0  0  0  0  0  0  0  0  0  0  0
   -2.9305   -4.2361   -0.6430 H   0  0  0  0  0  0  0  0  0  0  0  0
   -3.0379   -3.6284   -2.3125 H   0  0  0  0  0  0  0  0  0  0  0  0
   -1.9549   -7.6352   -1.7451 H   0  0  0  0  0  0  0  0  0  0  0  0
   -1.6376   -6.4888   -0.4210 H   0  0  0  0  0  0  0  0  0  0  0  0
   -3.4274   -5.7713    1.0568 H   0  0  0  0  0  0  0  0  0  0  0  0
   -5.5997   -6.3369    2.0684 H   0  0  0  0  0  0  0  0  0  0  0  0
   -6.3514   -9.1000   -1.0950 H   0  0  0  0  0  0  0  0  0  0  0  0
   -4.1815   -8.5284   -2.1085 H   0  0  0  0  0  0  0  0  0  0  0  0
   -0.8867   -4.0948   -4.9143 H   0  0  0  0  0  0  0  0  0  0  0  0
    1.3380   -4.4121   -5.9205 H   0  0  0  0  0  0  0  0  0  0  0  0
    1.0865   -8.6016   -5.1508 H   0  0  0  0  0  0  0  0  0  0  0  0
   -1.1353   -8.2813   -4.1392 H   0  0  0  0  0  0  0  0  0  0  0  0
  1  2  1  0
  1 30  1  6
  1 31  1  0
  1 32  1  0
  2  3  1  0
  3  4  1  0
  3 33  1  6
  3 34  1  0
  4  5  1  6
  4  6  1  0
  4  7  1  0
  6 35  1  6
  6 36  1  0
  6 37  1  0
  7  8  1  0
  7 38  1  0
  8  9  2  0
  8 10  1  0
 10 11  1  0
 10 39  1  1
 10 40  1  0
 11 12  1  0
 20 11  1  1
 12 13  1  0
 12 41  1  6
 12 42  1  0
 13 19  2  0
 13 14  1  0
 14 15  2  0
 14 43  1  0
 15 16  1  0
 15 44  1  0
 16 17  1  0
 16 18  2  0
 18 19  1  0
 18 45  1  0
 19 46  1  0
 20 21  2  0
 20 22  2  0
 20 23  1  0
 23 29  2  0
 23 24  1  0
 24 25  2  0
 24 47  1  0
 25 26  1  0
 25 48  1  0
 26 27  1  0
 26 28  2  0
 28 29  1  0
 28 49  1  0
 29 50  1  0
M  END
$$$$
