ZINC000012797168
     RDKit          3D

 55 57  0  0  1  0  0  0  0  0999 V2000
    0.9171   -1.0807    0.5891 C   0  0  1  0  0  0  0  0  0  0  0  0
    0.0021   -0.0041    0.0020 C   0  0  2  0  0  0  0  0  0  0  0  0
    0.1514    0.9323    0.5396 H   0  0  0  0  0  0  0  0  0  0  0  0
   -1.4349   -0.4375    0.1376 C   0  0  0  0  0  0  0  0  0  0  0  0
   -1.9738   -1.0417   -0.7653 O   0  0  0  0  0  0  0  0  0  0  0  0
   -2.1211   -0.1536    1.2624 N   0  0  0  0  0  0  0  0  0  0  0  0
   -3.5180   -0.5750    1.3942 C   0  0  1  0  0  0  0  0  0  0  0  0
   -3.5867   -2.0035    1.9725 C   0  0  1  0  0  0  0  0  0  0  0  0
   -3.7909   -1.7884    3.4927 C   0  0  1  0  0  0  0  0  0  0  0  0
   -4.7416   -0.5666    3.5405 C   0  0  1  0  0  0  0  0  0  0  0  0
   -4.2523    0.3386    2.3911 C   0  0  1  0  0  0  0  0  0  0  0  0
    0.3230    0.1901   -1.4183 N   0  0  0  0  0  0  0  0  0  0  0  0
    1.7579    0.4441   -1.6038 C   0  0  1  0  0  0  0  0  0  0  0  0
    2.0809    0.4604   -3.1017 C   0  0  1  0  0  0  0  0  0  0  0  0
    1.1881    1.4251   -3.7616 N   0  0  0  0  0  0  0  0  0  0  0  0
    1.7945    2.5999   -4.7589 S   0  0  1  0  0  0  0  0  0  0  0  0
    0.8325    3.6456   -4.7783 O   0  0  0  0  0  0  0  0  0  0  0  0
    3.1477    2.7958   -4.3717 O   0  0  0  0  0  0  0  0  0  0  0  0
    1.8352    1.9309   -6.3884 C   0  0  0  0  0  0  0  0  0  0  0  0
    2.9578    1.2566   -6.8309 C   0  0  0  0  0  0  0  0  0  0  0  0
    2.9897    0.7317   -8.1093 C   0  0  0  0  0  0  0  0  0  0  0  0
    1.8988    0.8808   -8.9451 C   0  0  0  0  0  0  0  0  0  0  0  0
    1.9337    0.3090  -10.3390 C   0  0  1  0  0  0  0  0  0  0  0  0
    1.4432   -1.0010  -10.3181 F   0  0  0  0  0  0  0  0  0  0  0  0
    1.1390    1.0911  -11.1839 F   0  0  0  0  0  0  0  0  0  0  0  0
    3.2514    0.3062  -10.8090 F   0  0  0  0  0  0  0  0  0  0  0  0
    0.7756    1.5540   -8.5022 C   0  0  0  0  0  0  0  0  0  0  0  0
    0.7422    2.0755   -7.2224 C   0  0  0  0  0  0  0  0  0  0  0  0
   -0.2575    1.3185   -3.5128 C   0  0  1  0  0  0  0  0  0  0  0  0
   -0.4884    1.2683   -1.9987 C   0  0  1  0  0  0  0  0  0  0  0  0
    0.7677   -2.0171    0.0515 H   0  0  0  0  0  0  0  0  0  0  0  0
    1.9564   -0.7672    0.4910 H   0  0  0  0  0  0  0  0  0  0  0  0
    0.6789   -1.2247    1.6429 H   0  0  0  0  0  0  0  0  0  0  0  0
   -1.6900    0.3296    1.9846 H   0  0  0  0  0  0  0  0  0  0  0  0
   -4.0113   -0.5405    0.4229 H   0  0  0  0  0  0  0  0  0  0  0  0
   -4.4305   -2.5470    1.5474 H   0  0  0  0  0  0  0  0  0  0  0  0
   -2.6547   -2.5365    1.7844 H   0  0  0  0  0  0  0  0  0  0  0  0
   -4.2603   -2.6611    3.9467 H   0  0  0  0  0  0  0  0  0  0  0  0
   -2.8436   -1.5601    3.9812 H   0  0  0  0  0  0  0  0  0  0  0  0
   -5.7719   -0.8780    3.3686 H   0  0  0  0  0  0  0  0  0  0  0  0
   -4.6524   -0.0509    4.4966 H   0  0  0  0  0  0  0  0  0  0  0  0
   -3.5693    1.0955    2.7769 H   0  0  0  0  0  0  0  0  0  0  0  0
   -5.1025    0.8159    1.9038 H   0  0  0  0  0  0  0  0  0  0  0  0
    2.0163    1.4080   -1.1655 H   0  0  0  0  0  0  0  0  0  0  0  0
    2.3327   -0.3434   -1.1164 H   0  0  0  0  0  0  0  0  0  0  0  0
    3.1182    0.7611   -3.2494 H   0  0  0  0  0  0  0  0  0  0  0  0
    1.9213   -0.5327   -3.5215 H   0  0  0  0  0  0  0  0  0  0  0  0
    3.8101    1.1401   -6.1779 H   0  0  0  0  0  0  0  0  0  0  0  0
    3.8671    0.2055   -8.4553 H   0  0  0  0  0  0  0  0  0  0  0  0
   -0.0769    1.6701   -9.1550 H   0  0  0  0  0  0  0  0  0  0  0  0
   -0.1353    2.6014   -6.8763 H   0  0  0  0  0  0  0  0  0  0  0  0
   -0.7663    2.1864   -3.9322 H   0  0  0  0  0  0  0  0  0  0  0  0
   -0.6419    0.4078   -3.9721 H   0  0  0  0  0  0  0  0  0  0  0  0
   -1.5428    1.0786   -1.7977 H   0  0  0  0  0  0  0  0  0  0  0  0
   -0.1987    2.2208   -1.5549 H   0  0  0  0  0  0  0  0  0  0  0  0
  1  2  1  0
  1 31  1  6
  1 32  1  0
  1 33  1  0
  2  3  1  1
  2  4  1  0
  2 12  1  0
  4  5  2  0
  4  6  1  0
  6  7  1  0
  6 34  1  0
  7 11  1  0
  7  8  1  0
  7 35  1  6
  8  9  1  0
  8 36  1  6
  8 37  1  0
  9 10  1  0
  9 38  1  1
  9 39  1  0
 10 11  1  0
 10 40  1  6
 10 41  1  0
 11 42  1  1
 11 43  1  0
 12 30  1  0
 12 13  1  0
 13 14  1  0
 13 44  1  1
 13 45  1  0
 14 15  1  0
 14 46  1  1
 14 47  1  0
 16 15  1  1
 15 29  1  0
 16 17  2  0
 16 18  2  0
 16 19  1  0
 19 28  2  0
 19 20  1  0
 20 21  2  0
 20 48  1  0
 21 22  1  0
 21 49  1  0
 22 23  1  0
 22 27  2  0
 23 24  1  1
 23 25  1  0
 23 26  1  0
 27 28  1  0
 27 50  1  0
 28 51  1  0
 29 30  1  0
 29 52  1  6
 29 53  1  0
 30 54  1  6
 30 55  1  0
M  END
$$$$
