ZINC000011161778
     RDKit          3D

 42 43  0  0  0  0  0  0  0  0999 V2000
   -0.0225    1.8097    0.0120 C   0  0  1  0  0  0  0  0  0  0  0  0
    0.0021   -0.0041    0.0020 S   0  0  1  0  0  0  0  0  0  0  0  0
    0.8448   -0.4970    1.0346 O   0  0  0  0  0  0  0  0  0  0  0  0
   -1.3093   -0.5195   -0.1821 O   0  0  0  0  0  0  0  0  0  0  0  0
    0.7961   -0.3989   -1.3965 N   0  0  0  0  0  0  0  0  0  0  0  0
    0.0540   -0.5827   -2.6517 C   0  0  1  0  0  0  0  0  0  0  0  0
    0.6512    0.3475   -3.7149 C   0  0  1  0  0  0  0  0  0  0  0  0
    2.1107    0.1752   -3.7232 N   0  0  0  0  0  0  0  0  0  0  0  0
    2.7570   -0.1453   -4.8617 C   0  0  0  0  0  0  0  0  0  0  0  0
    2.1339   -0.2940   -5.8915 O   0  0  0  0  0  0  0  0  0  0  0  0
    4.2540   -0.3187   -4.8550 C   0  0  1  0  0  0  0  0  0  0  0  0
    4.7118   -0.6623   -6.2036 N   0  0  0  0  0  0  0  0  0  0  0  0
    6.0708   -0.8735   -6.4471 C   0  0  0  0  0  0  0  0  0  0  0  0
    6.9890   -0.7637   -5.4105 C   0  0  0  0  0  0  0  0  0  0  0  0
    8.3320   -0.9736   -5.6546 C   0  0  0  0  0  0  0  0  0  0  0  0
    8.7631   -1.2923   -6.9294 C   0  0  0  0  0  0  0  0  0  0  0  0
   10.2294   -1.5206   -7.1920 C   0  0  1  0  0  0  0  0  0  0  0  0
   10.5317   -2.8735   -7.0039 F   0  0  0  0  0  0  0  0  0  0  0  0
   10.5299   -1.1542   -8.5083 F   0  0  0  0  0  0  0  0  0  0  0  0
   10.9877   -0.7460   -6.3076 F   0  0  0  0  0  0  0  0  0  0  0  0
    7.8517   -1.4023   -7.9635 C   0  0  0  0  0  0  0  0  0  0  0  0
    6.5066   -1.1994   -7.7252 C   0  0  0  0  0  0  0  0  0  0  0  0
    2.8528    0.3590   -2.4681 C   0  0  1  0  0  0  0  0  0  0  0  0
    2.2562   -0.5657   -1.4061 C   0  0  1  0  0  0  0  0  0  0  0  0
    1.0001    2.1870    0.0043 H   0  0  0  0  0  0  0  0  0  0  0  0
   -0.5497    2.1708   -0.8711 H   0  0  0  0  0  0  0  0  0  0  0  0
   -0.5327    2.1613    0.9088 H   0  0  0  0  0  0  0  0  0  0  0  0
    0.1421   -1.6182   -2.9804 H   0  0  0  0  0  0  0  0  0  0  0  0
   -0.9957   -0.3338   -2.4958 H   0  0  0  0  0  0  0  0  0  0  0  0
    0.2469    0.0910   -4.6941 H   0  0  0  0  0  0  0  0  0  0  0  0
    0.4063    1.3822   -3.4749 H   0  0  0  0  0  0  0  0  0  0  0  0
    4.7260    0.6109   -4.5369 H   0  0  0  0  0  0  0  0  0  0  0  0
    4.5240   -1.1181   -4.1649 H   0  0  0  0  0  0  0  0  0  0  0  0
    4.0711   -0.7432   -6.9273 H   0  0  0  0  0  0  0  0  0  0  0  0
    6.6531   -0.5142   -4.4149 H   0  0  0  0  0  0  0  0  0  0  0  0
    9.0464   -0.8884   -4.8492 H   0  0  0  0  0  0  0  0  0  0  0  0
    8.1917   -1.6514   -8.9579 H   0  0  0  0  0  0  0  0  0  0  0  0
    5.7953   -1.2858   -8.5332 H   0  0  0  0  0  0  0  0  0  0  0  0
    3.9025    0.1101   -2.6240 H   0  0  0  0  0  0  0  0  0  0  0  0
    2.7647    1.3945   -2.1394 H   0  0  0  0  0  0  0  0  0  0  0  0
    2.6613   -0.3081   -0.4275 H   0  0  0  0  0  0  0  0  0  0  0  0
    2.4993   -1.6012   -1.6444 H   0  0  0  0  0  0  0  0  0  0  0  0
  1  2  1  0
  1 25  1  6
  1 26  1  0
  1 27  1  0
  2  3  2  0
  2  4  2  0
  2  5  1  6
  5 24  1  0
  5  6  1  0
  6  7  1  0
  6 28  1  6
  6 29  1  0
  7  8  1  0
  7 30  1  6
  7 31  1  0
  8  9  1  0
  8 23  1  0
  9 10  2  0
  9 11  1  0
 11 12  1  0
 11 32  1  1
 11 33  1  0
 12 13  1  0
 12 34  1  0
 13 22  2  0
 13 14  1  0
 14 15  2  0
 14 35  1  0
 15 16  1  0
 15 36  1  0
 16 17  1  0
 16 21  2  0
 17 18  1  6
 17 19  1  0
 17 20  1  0
 21 22  1  0
 21 37  1  0
 22 38  1  0
 23 24  1  0
 23 39  1  6
 23 40  1  0
 24 41  1  1
 24 42  1  0
M  END
$$$$
