ZINC000237441142
     RDKit          3D

 40 41  0  0  1  0  0  0  0  0999 V2000
   -0.0187    1.5258    0.0104 C   0  0  1  0  0  0  0  0  0  0  0  0
    0.0021   -0.0041    0.0020 C   0  0  2  0  0  0  0  0  0  0  0  0
    0.5123   -0.3556   -0.8948 H   0  0  0  0  0  0  0  0  0  0  0  0
   -1.4117   -0.5257    0.0127 C   0  0  0  0  0  0  0  0  0  0  0  0
   -1.9937   -0.7310   -1.0388 O   0  0  0  0  0  0  0  0  0  0  0  0
   -1.9736   -0.7424    1.0729 O   0  0  0  0  0  0  0  0  0  0  0  0
    0.7126   -0.4907    1.1921 N   0  0  0  0  0  0  0  0  0  0  0  0
    1.9624    0.2528    1.3998 C   0  0  1  0  0  0  0  0  0  0  0  0
    2.5795   -0.1566    2.7414 C   0  0  1  0  0  0  0  0  0  0  0  0
    2.7155   -1.6209    2.7657 N   0  0  0  0  0  0  0  0  0  0  0  0
    4.1575   -2.3341    3.1585 S   0  0  1  0  0  0  0  0  0  0  0  0
    4.1361   -3.6299    2.5758 O   0  0  0  0  0  0  0  0  0  0  0  0
    5.1683   -1.3743    2.8822 O   0  0  0  0  0  0  0  0  0  0  0  0
    4.1625   -2.5736    4.9041 C   0  0  0  0  0  0  0  0  0  0  0  0
    4.6536   -1.5850    5.7359 C   0  0  0  0  0  0  0  0  0  0  0  0
    4.6575   -1.7729    7.1056 C   0  0  0  0  0  0  0  0  0  0  0  0
    4.1699   -2.9492    7.6432 C   0  0  0  0  0  0  0  0  0  0  0  0
    3.6779   -3.9377    6.8112 C   0  0  0  0  0  0  0  0  0  0  0  0
    3.1467   -5.2204    7.3973 C   0  0  1  0  0  0  0  0  0  0  0  0
    3.2559   -5.1766    8.7914 F   0  0  0  0  0  0  0  0  0  0  0  0
    1.8031   -5.3754    7.0395 F   0  0  0  0  0  0  0  0  0  0  0  0
    3.8879   -6.3001    6.9052 F   0  0  0  0  0  0  0  0  0  0  0  0
    3.6700   -3.7481    5.4422 C   0  0  0  0  0  0  0  0  0  0  0  0
    1.5367   -2.4349    2.4323 C   0  0  1  0  0  0  0  0  0  0  0  0
    0.9607   -1.9358    1.1029 C   0  0  1  0  0  0  0  0  0  0  0  0
    1.0039    1.9031    0.0027 H   0  0  0  0  0  0  0  0  0  0  0  0
   -0.5459    1.8868   -0.8726 H   0  0  0  0  0  0  0  0  0  0  0  0
   -0.5289    1.8773    0.9072 H   0  0  0  0  0  0  0  0  0  0  0  0
    2.6598    0.0243    0.5939 H   0  0  0  0  0  0  0  0  0  0  0  0
    1.7524    1.3223    1.4073 H   0  0  0  0  0  0  0  0  0  0  0  0
    3.5614    0.3042    2.8486 H   0  0  0  0  0  0  0  0  0  0  0  0
    1.9304    0.1644    3.5561 H   0  0  0  0  0  0  0  0  0  0  0  0
    5.0345   -0.6659    5.3158 H   0  0  0  0  0  0  0  0  0  0  0  0
    5.0419   -1.0007    7.7555 H   0  0  0  0  0  0  0  0  0  0  0  0
    4.1736   -3.0962    8.7131 H   0  0  0  0  0  0  0  0  0  0  0  0
    3.2856   -4.5203    4.7923 H   0  0  0  0  0  0  0  0  0  0  0  0
    1.8293   -3.4804    2.3351 H   0  0  0  0  0  0  0  0  0  0  0  0
    0.7874   -2.3329    3.2173 H   0  0  0  0  0  0  0  0  0  0  0  0
    0.0243   -2.4535    0.8950 H   0  0  0  0  0  0  0  0  0  0  0  0
    1.6721   -2.1339    0.3011 H   0  0  0  0  0  0  0  0  0  0  0  0
  1  2  1  0
  1 26  1  6
  1 27  1  0
  1 28  1  0
  2  3  1  6
  2  4  1  0
  2  7  1  0
  4  5  2  0
  4  6  1  0
  7 25  1  0
  7  8  1  0
  8  9  1  0
  8 29  1  6
  8 30  1  0
  9 10  1  0
  9 31  1  1
  9 32  1  0
 11 10  1  1
 10 24  1  0
 11 12  2  0
 11 13  2  0
 11 14  1  0
 14 23  2  0
 14 15  1  0
 15 16  2  0
 15 33  1  0
 16 17  1  0
 16 34  1  0
 17 18  2  0
 17 35  1  0
 18 19  1  0
 18 23  1  0
 19 20  1  1
 19 21  1  0
 19 22  1  0
 23 36  1  0
 24 25  1  0
 24 37  1  6
 24 38  1  0
 25 39  1  6
 25 40  1  0
M  END
$$$$
