ZINC000013064197
     RDKit          3D

 71 75  0  0  1  0  0  0  0  0999 V2000
   -9.0478   -6.1173    4.1560 C   0  0  1  0  0  0  0  0  0  0  0  0
   -9.2316   -4.7919    3.6545 O   0  0  0  0  0  0  0  0  0  0  0  0
   -8.2799   -4.3143    2.8100 C   0  0  0  0  0  0  0  0  0  0  0  0
   -7.1945   -5.1072    2.4666 C   0  0  0  0  0  0  0  0  0  0  0  0
   -6.2287   -4.6195    1.6076 C   0  0  0  0  0  0  0  0  0  0  0  0
   -6.3429   -3.3422    1.0907 C   0  0  0  0  0  0  0  0  0  0  0  0
   -5.1090   -2.7230   -0.0042 S   0  0  1  0  0  0  0  0  0  0  0  0
   -5.1590   -1.3064    0.0950 O   0  0  0  0  0  0  0  0  0  0  0  0
   -3.9324   -3.4788    0.2486 O   0  0  0  0  0  0  0  0  0  0  0  0
   -5.5858   -3.1011   -1.5443 N   0  0  0  0  0  0  0  0  0  0  0  0
   -5.2909   -4.4249   -2.0982 C   0  0  1  0  0  0  0  0  0  0  0  0
   -6.4778   -5.3308   -1.8937 C   0  0  0  0  0  0  0  0  0  0  0  0
   -7.4721   -4.9119   -1.3398 O   0  0  0  0  0  0  0  0  0  0  0  0
   -6.4343   -6.6065   -2.3264 N   0  0  0  0  0  0  0  0  0  0  0  0
   -7.5881   -7.4871   -2.1276 C   0  0  1  0  0  0  0  0  0  0  0  0
   -8.0696   -7.2467   -1.1797 H   0  0  0  0  0  0  0  0  0  0  0  0
   -8.5849   -7.2877   -3.2710 C   0  0  1  0  0  0  0  0  0  0  0  0
   -7.1204   -8.9437   -2.1070 C   0  0  1  0  0  0  0  0  0  0  0  0
   -6.1236   -9.1432   -0.9635 C   0  0  1  0  0  0  0  0  0  0  0  0
   -5.6558  -10.5998   -0.9429 C   0  0  2  0  0  0  0  0  0  0  0  0
   -4.9799  -10.9372   -2.2734 C   0  0  1  0  0  0  0  0  0  0  0  0
   -5.9767  -10.7378   -3.4169 C   0  0  1  0  0  0  0  0  0  0  0  0
   -7.1817  -11.6575   -3.2092 C   0  0  1  0  0  0  0  0  0  0  0  0
   -7.8576  -11.3200   -1.8788 C   0  0  1  0  0  0  0  0  0  0  0  0
   -6.8608  -11.5195   -0.7353 C   0  0  1  0  0  0  0  0  0  0  0  0
   -8.3253   -9.8634   -1.8994 C   0  0  1  0  0  0  0  0  0  0  0  0
   -6.4445   -9.2812   -3.4374 C   0  0  1  0  0  0  0  0  0  0  0  0
   -6.3025   -2.1118   -2.3529 C   0  0  1  0  0  0  0  0  0  0  0  0
   -5.3245   -1.3823   -3.2373 C   0  0  0  0  0  0  0  0  0  0  0  0
   -4.7921   -0.1736   -2.8293 C   0  0  0  0  0  0  0  0  0  0  0  0
   -3.8950    0.4956   -3.6406 C   0  0  0  0  0  0  0  0  0  0  0  0
   -3.5299   -0.0441   -4.8598 C   0  0  0  0  0  0  0  0  0  0  0  0
   -4.0616   -1.2533   -5.2674 C   0  0  0  0  0  0  0  0  0  0  0  0
   -4.9555   -1.9245   -4.4542 C   0  0  0  0  0  0  0  0  0  0  0  0
   -7.4239   -2.5502    1.4311 C   0  0  0  0  0  0  0  0  0  0  0  0
   -8.3951   -3.0351    2.2855 C   0  0  0  0  0  0  0  0  0  0  0  0
   -9.8761   -6.3740    4.8164 H   0  0  0  0  0  0  0  0  0  0  0  0
   -9.0160   -6.8198    3.3231 H   0  0  0  0  0  0  0  0  0  0  0  0
   -8.1111   -6.1692    4.7110 H   0  0  0  0  0  0  0  0  0  0  0  0
   -7.1045   -6.1047    2.8707 H   0  0  0  0  0  0  0  0  0  0  0  0
   -5.3836   -5.2364    1.3400 H   0  0  0  0  0  0  0  0  0  0  0  0
   -5.0823   -4.3345   -3.1642 H   0  0  0  0  0  0  0  0  0  0  0  0
   -4.4217   -4.8451   -1.5922 H   0  0  0  0  0  0  0  0  0  0  0  0
   -5.6391   -6.9416   -2.7694 H   0  0  0  0  0  0  0  0  0  0  0  0
   -8.9181   -6.2499   -3.2857 H   0  0  0  0  0  0  0  0  0  0  0  0
   -8.1034   -7.5281   -4.2189 H   0  0  0  0  0  0  0  0  0  0  0  0
   -9.4433   -7.9429   -3.1231 H   0  0  0  0  0  0  0  0  0  0  0  0
   -5.2651   -8.4880   -1.1114 H   0  0  0  0  0  0  0  0  0  0  0  0
   -6.6051   -8.9027   -0.0157 H   0  0  0  0  0  0  0  0  0  0  0  0
   -4.9457  -10.7419   -0.1283 H   0  0  0  0  0  0  0  0  0  0  0  0
   -4.1215  -10.2820   -2.4213 H   0  0  0  0  0  0  0  0  0  0  0  0
   -4.6467  -11.9750   -2.2587 H   0  0  0  0  0  0  0  0  0  0  0  0
   -5.4952  -10.9782   -4.3647 H   0  0  0  0  0  0  0  0  0  0  0  0
   -7.8919  -11.5154   -4.0239 H   0  0  0  0  0  0  0  0  0  0  0  0
   -6.8485  -12.6952   -3.1946 H   0  0  0  0  0  0  0  0  0  0  0  0
   -8.7161  -11.9752   -1.7309 H   0  0  0  0  0  0  0  0  0  0  0  0
   -6.5276  -12.5572   -0.7206 H   0  0  0  0  0  0  0  0  0  0  0  0
   -7.3423  -11.2790    0.2125 H   0  0  0  0  0  0  0  0  0  0  0  0
   -8.8069   -9.6230   -0.9515 H   0  0  0  0  0  0  0  0  0  0  0  0
   -9.0355   -9.7213   -2.7140 H   0  0  0  0  0  0  0  0  0  0  0  0
   -7.1546   -9.1391   -4.2521 H   0  0  0  0  0  0  0  0  0  0  0  0
   -5.5860   -8.6260   -3.5854 H   0  0  0  0  0  0  0  0  0  0  0  0
   -7.0448   -2.6168   -2.9711 H   0  0  0  0  0  0  0  0  0  0  0  0
   -6.8010   -1.3985   -1.6965 H   0  0  0  0  0  0  0  0  0  0  0  0
   -5.0774    0.2481   -1.8768 H   0  0  0  0  0  0  0  0  0  0  0  0
   -3.4796    1.4403   -3.3221 H   0  0  0  0  0  0  0  0  0  0  0  0
   -2.8296    0.4791   -5.4939 H   0  0  0  0  0  0  0  0  0  0  0  0
   -3.7766   -1.6748   -6.2200 H   0  0  0  0  0  0  0  0  0  0  0  0
   -5.3709   -2.8692   -4.7726 H   0  0  0  0  0  0  0  0  0  0  0  0
   -7.5110   -1.5530    1.0257 H   0  0  0  0  0  0  0  0  0  0  0  0
   -9.2393   -2.4161    2.5511 H   0  0  0  0  0  0  0  0  0  0  0  0
  1  2  1  0
  1 37  1  1
  1 38  1  0
  1 39  1  0
  2  3  1  0
  3 36  2  0
  3  4  1  0
  4  5  2  0
  4 40  1  0
  5  6  1  0
  5 41  1  0
  6  7  1  0
  6 35  2  0
  7  8  2  0
  7  9  2  0
  7 10  1  6
 10 11  1  0
 10 28  1  0
 11 12  1  0
 11 42  1  6
 11 43  1  0
 12 13  2  0
 12 14  1  0
 14 15  1  0
 14 44  1  0
 15 16  1  1
 15 17  1  0
 18 15  1  6
 17 45  1  6
 17 46  1  0
 17 47  1  0
 18 26  1  0
 18 27  1  0
 18 19  1  0
 19 20  1  0
 19 48  1  6
 19 49  1  0
 20 25  1  0
 20 21  1  0
 20 50  1  1
 21 22  1  0
 21 51  1  6
 21 52  1  0
 22 23  1  0
 22 27  1  0
 22 53  1  6
 23 24  1  0
 23 54  1  6
 23 55  1  0
 24 25  1  0
 24 26  1  0
 24 56  1  1
 25 57  1  1
 25 58  1  0
 26 59  1  1
 26 60  1  0
 27 61  1  6
 27 62  1  0
 28 29  1  0
 28 63  1  6
 28 64  1  0
 29 34  2  0
 29 30  1  0
 30 31  2  0
 30 65  1  0
 31 32  1  0
 31 66  1  0
 32 33  2  0
 32 67  1  0
 33 34  1  0
 33 68  1  0
 34 69  1  0
 35 36  1  0
 35 70  1  0
 36 71  1  0
M  END
$$$$
