ZINC000078657674
     RDKit          3D

 37 38  0  0  1  0  0  0  0  0999 V2000
   -0.0187    1.5258    0.0104 C   0  0  1  0  0  0  0  0  0  0  0  0
    0.0021   -0.0041    0.0020 C   0  0  1  0  0  0  0  0  0  0  0  0
   -1.0205   -0.3814    0.0098 H   0  0  0  0  0  0  0  0  0  0  0  0
    0.7074   -0.4901   -1.2379 C   0  0  0  0  0  0  0  0  0  0  0  0
    2.0258   -0.1416   -1.4645 C   0  0  0  0  0  0  0  0  0  0  0  0
    2.6729   -0.5874   -2.6018 C   0  0  0  0  0  0  0  0  0  0  0  0
    2.0017   -1.3820   -3.5123 C   0  0  0  0  0  0  0  0  0  0  0  0
    2.7069   -1.8676   -4.7524 C   0  0  1  0  0  0  0  0  0  0  0  0
    3.3223   -3.0959   -4.4882 F   0  0  0  0  0  0  0  0  0  0  0  0
    1.7774   -2.0246   -5.7862 F   0  0  0  0  0  0  0  0  0  0  0  0
    3.6756   -0.9332   -5.1341 F   0  0  0  0  0  0  0  0  0  0  0  0
    0.6837   -1.7316   -3.2850 C   0  0  0  0  0  0  0  0  0  0  0  0
    0.0378   -1.2890   -2.1457 C   0  0  0  0  0  0  0  0  0  0  0  0
    0.8794   -0.6050    1.4716 S   0  0  1  0  0  0  0  0  0  0  0  0
    0.7770   -2.0217    1.5123 O   0  0  0  0  0  0  0  0  0  0  0  0
    2.1651   -0.0009    1.5099 O   0  0  0  0  0  0  0  0  0  0  0  0
   -0.1240    0.0859    2.8157 C   0  0  1  0  0  0  0  0  0  0  0  0
   -1.5413   -0.5388    2.8103 C   0  0  1  0  0  0  0  0  0  0  0  0
   -2.0084   -0.3391    4.2735 C   0  0  1  0  0  0  0  0  0  0  0  0
   -0.7377   -0.5841    5.1131 C   0  0  1  0  0  0  0  0  0  0  0  0
    0.4605   -0.3140    4.1862 C   0  0  1  0  0  0  0  0  0  0  0  0
    1.0039    1.9031    0.0027 H   0  0  0  0  0  0  0  0  0  0  0  0
   -0.5459    1.8868   -0.8726 H   0  0  0  0  0  0  0  0  0  0  0  0
   -0.5289    1.8773    0.9072 H   0  0  0  0  0  0  0  0  0  0  0  0
    2.5502    0.4792   -0.7532 H   0  0  0  0  0  0  0  0  0  0  0  0
    3.7027   -0.3146   -2.7792 H   0  0  0  0  0  0  0  0  0  0  0  0
    0.1594   -2.3527   -3.9961 H   0  0  0  0  0  0  0  0  0  0  0  0
   -0.9919   -1.5621   -1.9681 H   0  0  0  0  0  0  0  0  0  0  0  0
   -0.1827    1.1707    2.7278 H   0  0  0  0  0  0  0  0  0  0  0  0
   -2.1955   -0.0064    2.1198 H   0  0  0  0  0  0  0  0  0  0  0  0
   -1.4953   -1.5989    2.5608 H   0  0  0  0  0  0  0  0  0  0  0  0
   -2.3737    0.6771    4.4220 H   0  0  0  0  0  0  0  0  0  0  0  0
   -2.7808   -1.0643    4.5298 H   0  0  0  0  0  0  0  0  0  0  0  0
   -0.7140    0.0985    5.9625 H   0  0  0  0  0  0  0  0  0  0  0  0
   -0.7143   -1.6164    5.4624 H   0  0  0  0  0  0  0  0  0  0  0  0
    1.0654   -1.2151    4.0856 H   0  0  0  0  0  0  0  0  0  0  0  0
    1.0656    0.4998    4.5858 H   0  0  0  0  0  0  0  0  0  0  0  0
  1  2  1  0
  1 22  1  6
  1 23  1  0
  1 24  1  0
  2  3  1  1
  2  4  1  0
 14  2  1  6
  4 13  2  0
  4  5  1  0
  5  6  2  0
  5 25  1  0
  6  7  1  0
  6 26  1  0
  7  8  1  0
  7 12  2  0
  8  9  1  1
  8 10  1  0
  8 11  1  0
 12 13  1  0
 12 27  1  0
 13 28  1  0
 14 15  2  0
 14 16  2  0
 14 17  1  0
 17 21  1  0
 17 18  1  0
 17 29  1  6
 18 19  1  0
 18 30  1  6
 18 31  1  0
 19 20  1  0
 19 32  1  6
 19 33  1  0
 20 21  1  0
 20 34  1  1
 20 35  1  0
 21 36  1  6
 21 37  1  0
M  END
$$$$
