ZINC000071850196
     RDKit          3D

 44 46  0  0  1  0  0  0  0  0999 V2000
    0.0021   -0.0041    0.0020 O   0  0  0  0  0  0  0  0  0  0  0  0
   -0.0144    1.2086    0.0087 C   0  0  0  0  0  0  0  0  0  0  0  0
    1.1435    1.8983    0.0013 N   0  0  0  0  0  0  0  0  0  0  0  0
    2.4220    1.1832   -0.0147 C   0  0  1  0  0  0  0  0  0  0  0  0
    3.5540    2.1779   -0.0202 C   0  0  0  0  0  0  0  0  0  0  0  0
    4.0580    2.6449   -1.2197 C   0  0  0  0  0  0  0  0  0  0  0  0
    5.0964    3.5574   -1.2247 C   0  0  0  0  0  0  0  0  0  0  0  0
    5.6304    4.0033   -0.0302 C   0  0  0  0  0  0  0  0  0  0  0  0
    6.7628    4.9977   -0.0357 C   0  0  1  0  0  0  0  0  0  0  0  0
    6.2430    6.2964   -0.0182 F   0  0  0  0  0  0  0  0  0  0  0  0
    7.5623    4.8002    1.0952 F   0  0  0  0  0  0  0  0  0  0  0  0
    7.5342    4.8196   -1.1891 F   0  0  0  0  0  0  0  0  0  0  0  0
    5.1256    3.5374    1.1693 C   0  0  0  0  0  0  0  0  0  0  0  0
    4.0846    2.6278    1.1744 C   0  0  0  0  0  0  0  0  0  0  0  0
   -1.3296    1.9443    0.0189 C   0  0  1  0  0  0  0  0  0  0  0  0
   -1.3933    2.5771    0.9041 H   0  0  0  0  0  0  0  0  0  0  0  0
   -1.4580    2.8076   -1.2538 C   0  0  1  0  0  0  0  0  0  0  0  0
   -2.3059    1.9132   -2.1963 C   0  0  1  0  0  0  0  0  0  0  0  0
   -3.2628    1.2230   -1.1924 C   0  0  1  0  0  0  0  0  0  0  0  0
   -2.4409    0.9818    0.0114 N   0  0  0  0  0  0  0  0  0  0  0  0
   -2.7239   -0.1808    1.1561 S   0  0  1  0  0  0  0  0  0  0  0  0
   -2.0910    0.2664    2.3472 O   0  0  0  0  0  0  0  0  0  0  0  0
   -4.1089   -0.4895    1.0808 O   0  0  0  0  0  0  0  0  0  0  0  0
   -1.8625   -1.6321    0.6496 C   0  0  0  0  0  0  0  0  0  0  0  0
   -0.6083   -1.9384    0.9852 C   0  0  0  0  0  0  0  0  0  0  0  0
   -0.1417   -3.1345    0.4679 C   0  0  0  0  0  0  0  0  0  0  0  0
   -1.0169   -3.7996   -0.2877 C   0  0  0  0  0  0  0  0  0  0  0  0
   -2.5273   -2.9021   -0.3695 S   0  0  0  0  0  0  0  0  0  0  0  0
    1.1304    2.8682    0.0067 H   0  0  0  0  0  0  0  0  0  0  0  0
    2.4967    0.5526    0.8712 H   0  0  0  0  0  0  0  0  0  0  0  0
    2.4797    0.5621   -0.9086 H   0  0  0  0  0  0  0  0  0  0  0  0
    3.6407    2.2965   -2.1529 H   0  0  0  0  0  0  0  0  0  0  0  0
    5.4906    3.9217   -2.1619 H   0  0  0  0  0  0  0  0  0  0  0  0
    5.5426    3.8860    2.1026 H   0  0  0  0  0  0  0  0  0  0  0  0
    3.6902    2.2638    2.1116 H   0  0  0  0  0  0  0  0  0  0  0  0
   -1.9781    3.7404   -1.0362 H   0  0  0  0  0  0  0  0  0  0  0  0
   -0.4773    3.0037   -1.6873 H   0  0  0  0  0  0  0  0  0  0  0  0
   -2.8616    2.5177   -2.9132 H   0  0  0  0  0  0  0  0  0  0  0  0
   -1.6807    1.1807   -2.7069 H   0  0  0  0  0  0  0  0  0  0  0  0
   -4.0996    1.8793   -0.9535 H   0  0  0  0  0  0  0  0  0  0  0  0
   -3.6243    0.2791   -1.6005 H   0  0  0  0  0  0  0  0  0  0  0  0
   -0.0028   -1.3012    1.6126 H   0  0  0  0  0  0  0  0  0  0  0  0
    0.8555   -3.5013    0.6612 H   0  0  0  0  0  0  0  0  0  0  0  0
   -0.8282   -4.7462   -0.7722 H   0  0  0  0  0  0  0  0  0  0  0  0
  1  2  2  0
  2  3  1  0
  2 15  1  0
  3  4  1  0
  3 29  1  0
  4  5  1  0
  4 30  1  1
  4 31  1  0
  5 14  2  0
  5  6  1  0
  6  7  2  0
  6 32  1  0
  7  8  1  0
  7 33  1  0
  8  9  1  0
  8 13  2  0
  9 10  1  1
  9 11  1  0
  9 12  1  0
 13 14  1  0
 13 34  1  0
 14 35  1  0
 15 16  1  1
 15 20  1  0
 15 17  1  0
 17 18  1  0
 17 36  1  1
 17 37  1  0
 18 19  1  0
 18 38  1  6
 18 39  1  0
 19 20  1  0
 19 40  1  1
 19 41  1  0
 21 20  1  6
 21 22  2  0
 21 23  2  0
 21 24  1  0
 24 28  1  0
 24 25  2  0
 25 26  1  0
 25 42  1  0
 26 27  2  0
 26 43  1  0
 27 28  1  0
 27 44  1  0
M  END
$$$$
