ZINC000006359795
     RDKit          3D

 39 40  0  0  1  0  0  0  0  0999 V2000
   -0.0187    1.5258    0.0104 C   0  0  1  0  0  0  0  0  0  0  0  0
    0.0021   -0.0041    0.0020 C   0  0  1  0  0  0  0  0  0  0  0  0
    0.7421   -0.5109    1.2415 C   0  0  1  0  0  0  0  0  0  0  0  0
   -1.4333   -0.5336    0.0129 C   0  0  1  0  0  0  0  0  0  0  0  0
    0.6878   -0.4765   -1.2033 N   0  0  0  0  0  0  0  0  0  0  0  0
    1.9715   -0.1323   -1.4270 C   0  0  0  0  0  0  0  0  0  0  0  0
    2.5590    0.5687   -0.6305 O   0  0  0  0  0  0  0  0  0  0  0  0
    2.6769   -0.6183   -2.6669 C   0  0  1  0  0  0  0  0  0  0  0  0
    4.0513   -0.1112   -2.6773 N   0  0  0  0  0  0  0  0  0  0  0  0
    4.4032    1.0754   -3.2373 C   0  0  0  0  0  0  0  0  0  0  0  0
    3.7243    1.7652   -3.9673 O   0  0  0  0  0  0  0  0  0  0  0  0
    5.7984    1.3612   -2.7710 C   0  0  2  0  0  0  0  0  0  0  0  0
    5.7794    1.8686   -1.8065 H   0  0  0  0  0  0  0  0  0  0  0  0
    6.7406    2.0713   -3.7202 C   0  0  1  0  0  0  0  0  0  0  0  0
    8.1361    1.9161   -3.1531 C   0  0  0  0  0  0  0  0  0  0  0  0
    8.4734    1.0257   -2.2698 C   0  0  0  0  0  0  0  0  0  0  0  0
    7.5283   -0.0075   -1.6934 C   0  0  1  0  0  0  0  0  0  0  0  0
    6.3371   -0.0941   -2.6116 C   0  0  1  0  0  0  0  0  0  0  0  0
    6.6381   -0.4753   -3.5874 H   0  0  0  0  0  0  0  0  0  0  0  0
    5.0959   -0.7794   -2.1228 C   0  0  0  0  0  0  0  0  0  0  0  0
    5.0378   -1.7471   -1.3949 O   0  0  0  0  0  0  0  0  0  0  0  0
    1.0039    1.9031    0.0027 H   0  0  0  0  0  0  0  0  0  0  0  0
   -0.5459    1.8868   -0.8726 H   0  0  0  0  0  0  0  0  0  0  0  0
   -0.5289    1.8773    0.9072 H   0  0  0  0  0  0  0  0  0  0  0  0
    0.2319   -0.1594    2.1383 H   0  0  0  0  0  0  0  0  0  0  0  0
    0.7568   -1.6008    1.2356 H   0  0  0  0  0  0  0  0  0  0  0  0
    1.7647   -0.1336    1.2338 H   0  0  0  0  0  0  0  0  0  0  0  0
   -1.9605   -0.1726   -0.8702 H   0  0  0  0  0  0  0  0  0  0  0  0
   -1.4185   -1.6235    0.0069 H   0  0  0  0  0  0  0  0  0  0  0  0
   -1.9435   -0.1821    0.9097 H   0  0  0  0  0  0  0  0  0  0  0  0
    0.2179   -1.0371   -1.8404 H   0  0  0  0  0  0  0  0  0  0  0  0
    2.6916   -1.7081   -2.6729 H   0  0  0  0  0  0  0  0  0  0  0  0
    2.1497   -0.2572   -3.5500 H   0  0  0  0  0  0  0  0  0  0  0  0
    6.6874    1.6146   -4.7084 H   0  0  0  0  0  0  0  0  0  0  0  0
    6.4796    3.1277   -3.7827 H   0  0  0  0  0  0  0  0  0  0  0  0
    8.9019    2.5904   -3.5070 H   0  0  0  0  0  0  0  0  0  0  0  0
    9.4964    1.0217   -1.9235 H   0  0  0  0  0  0  0  0  0  0  0  0
    8.0266   -0.9751   -1.6329 H   0  0  0  0  0  0  0  0  0  0  0  0
    7.1957    0.3036   -0.7031 H   0  0  0  0  0  0  0  0  0  0  0  0
  1  2  1  0
  1 22  1  6
  1 23  1  0
  1 24  1  0
  2  3  1  0
  2  4  1  0
  2  5  1  6
  3 25  1  1
  3 26  1  0
  3 27  1  0
  4 28  1  6
  4 29  1  0
  4 30  1  0
  5  6  1  0
  5 31  1  0
  6  7  2  0
  6  8  1  0
  8  9  1  0
  8 32  1  1
  8 33  1  0
  9 20  1  0
  9 10  1  0
 10 11  2  0
 10 12  1  0
 12 13  1  1
 12 18  1  0
 12 14  1  0
 14 15  1  0
 14 34  1  6
 14 35  1  0
 15 16  2  0
 15 36  1  0
 16 17  1  0
 16 37  1  0
 17 18  1  0
 17 38  1  1
 17 39  1  0
 18 19  1  6
 18 20  1  0
 20 21  2  0
M  END
$$$$
