ZINC000000780802
     RDKit          3D

 54 56  0  0  1  0  0  0  0  0999 V2000
   -3.5572   -9.2277   -0.1151 C   0  0  1  0  0  0  0  0  0  0  0  0
   -2.6432   -8.0298   -0.0861 C   0  0  0  0  0  0  0  0  0  0  0  0
   -2.3106   -7.4432    1.1206 C   0  0  0  0  0  0  0  0  0  0  0  0
   -1.4722   -6.3445    1.1472 C   0  0  0  0  0  0  0  0  0  0  0  0
   -0.9661   -5.8325   -0.0329 C   0  0  0  0  0  0  0  0  0  0  0  0
    0.1021   -4.4316    0.0010 S   0  0  1  0  0  0  0  0  0  0  0  0
   -0.0101   -3.8106   -1.2722 O   0  0  0  0  0  0  0  0  0  0  0  0
   -0.1627   -3.7546    1.2220 O   0  0  0  0  0  0  0  0  0  0  0  0
    1.6535   -5.0006    0.1087 N   0  0  0  0  0  0  0  0  0  0  0  0
    2.2155   -5.3531    1.4149 C   0  0  1  0  0  0  0  0  0  0  0  0
    2.0395   -6.8304    1.6553 C   0  0  0  0  0  0  0  0  0  0  0  0
    1.4981   -7.5208    0.8180 O   0  0  0  0  0  0  0  0  0  0  0  0
    2.4839   -7.3843    2.8008 N   0  0  0  0  0  0  0  0  0  0  0  0
    2.3129   -8.8204    3.0346 C   0  0  1  0  0  0  0  0  0  0  0  0
    2.8997   -9.1885    4.3987 C   0  0  1  0  0  0  0  0  0  0  0  0
    2.4008   -8.6270    5.1885 H   0  0  0  0  0  0  0  0  0  0  0  0
    2.7604  -10.7110    4.6510 C   0  0  1  0  0  0  0  0  0  0  0  0
    3.9142  -10.9489    5.6630 C   0  0  1  0  0  0  0  0  0  0  0  0
    4.9818   -9.9412    5.1855 C   0  0  1  0  0  0  0  0  0  0  0  0
    4.3127   -8.9305    4.4197 O   0  0  0  0  0  0  0  0  0  0  0  0
    2.4641   -5.1515   -1.1023 C   0  0  1  0  0  0  0  0  0  0  0  0
    3.3251   -3.9284   -1.2860 C   0  0  0  0  0  0  0  0  0  0  0  0
    2.8960   -2.8978   -2.1013 C   0  0  0  0  0  0  0  0  0  0  0  0
    3.6847   -1.7757   -2.2706 C   0  0  0  0  0  0  0  0  0  0  0  0
    4.9050   -1.6838   -1.6229 C   0  0  0  0  0  0  0  0  0  0  0  0
    5.6767   -0.5871   -1.7873 F   0  0  0  0  0  0  0  0  0  0  0  0
    5.3336   -2.7164   -0.8062 C   0  0  0  0  0  0  0  0  0  0  0  0
    4.5409   -3.8355   -0.6346 C   0  0  0  0  0  0  0  0  0  0  0  0
   -1.2976   -6.4199   -1.2395 C   0  0  0  0  0  0  0  0  0  0  0  0
   -2.1329   -7.5210   -1.2658 C   0  0  0  0  0  0  0  0  0  0  0  0
   -2.9642  -10.1391   -0.0388 H   0  0  0  0  0  0  0  0  0  0  0  0
   -4.2519   -9.1750    0.7231 H   0  0  0  0  0  0  0  0  0  0  0  0
   -4.1165   -9.2354   -1.0507 H   0  0  0  0  0  0  0  0  0  0  0  0
   -2.7060   -7.8432    2.0426 H   0  0  0  0  0  0  0  0  0  0  0  0
   -1.2129   -5.8858    2.0900 H   0  0  0  0  0  0  0  0  0  0  0  0
    3.2769   -5.1060    1.4325 H   0  0  0  0  0  0  0  0  0  0  0  0
    1.6993   -4.7940    2.1953 H   0  0  0  0  0  0  0  0  0  0  0  0
    2.9170   -6.8321    3.4705 H   0  0  0  0  0  0  0  0  0  0  0  0
    1.2514   -9.0675    3.0170 H   0  0  0  0  0  0  0  0  0  0  0  0
    2.8290   -9.3795    2.2541 H   0  0  0  0  0  0  0  0  0  0  0  0
    1.7935  -10.9488    5.0945 H   0  0  0  0  0  0  0  0  0  0  0  0
    2.9196  -11.2774    3.7335 H   0  0  0  0  0  0  0  0  0  0  0  0
    3.5922  -10.7206    6.6791 H   0  0  0  0  0  0  0  0  0  0  0  0
    4.2867  -11.9709    5.5934 H   0  0  0  0  0  0  0  0  0  0  0  0
    5.4725   -9.4867    6.0462 H   0  0  0  0  0  0  0  0  0  0  0  0
    5.7189  -10.4500    4.5642 H   0  0  0  0  0  0  0  0  0  0  0  0
    3.0994   -6.0321   -1.0069 H   0  0  0  0  0  0  0  0  0  0  0  0
    1.8091   -5.2678   -1.9657 H   0  0  0  0  0  0  0  0  0  0  0  0
    1.9441   -2.9697   -2.6065 H   0  0  0  0  0  0  0  0  0  0  0  0
    3.3496   -0.9710   -2.9082 H   0  0  0  0  0  0  0  0  0  0  0  0
    6.2854   -2.6460   -0.3007 H   0  0  0  0  0  0  0  0  0  0  0  0
    4.8749   -4.6409    0.0027 H   0  0  0  0  0  0  0  0  0  0  0  0
   -0.9019   -6.0202   -2.1614 H   0  0  0  0  0  0  0  0  0  0  0  0
   -2.3919   -7.9799   -2.2085 H   0  0  0  0  0  0  0  0  0  0  0  0
  1  2  1  0
  1 31  1  1
  1 32  1  0
  1 33  1  0
  2 30  2  0
  2  3  1  0
  3  4  2  0
  3 34  1  0
  4  5  1  0
  4 35  1  0
  5  6  1  0
  5 29  2  0
  6  7  2  0
  6  8  2  0
  6  9  1  1
  9 10  1  0
  9 21  1  0
 10 11  1  0
 10 36  1  6
 10 37  1  0
 11 12  2  0
 11 13  1  0
 13 14  1  0
 13 38  1  0
 14 15  1  0
 14 39  1  1
 14 40  1  0
 15 16  1  1
 15 20  1  0
 15 17  1  0
 17 18  1  0
 17 41  1  1
 17 42  1  0
 18 19  1  0
 18 43  1  1
 18 44  1  0
 19 20  1  0
 19 45  1  1
 19 46  1  0
 21 22  1  0
 21 47  1  1
 21 48  1  0
 22 28  2  0
 22 23  1  0
 23 24  2  0
 23 49  1  0
 24 25  1  0
 24 50  1  0
 25 26  1  0
 25 27  2  0
 27 28  1  0
 27 51  1  0
 28 52  1  0
 29 30  1  0
 29 53  1  0
 30 54  1  0
M  END
$$$$
