ZINC000019929576
     RDKit          3D

 44 45  0  0  0  0  0  0  0  0999 V2000
   -0.0187    1.5258    0.0104 C   0  0  1  0  0  0  0  0  0  0  0  0
    0.0021   -0.0041    0.0020 C   0  0  1  0  0  0  0  0  0  0  0  0
   -1.3723   -0.5112    0.0124 N   0  0  0  0  0  0  0  0  0  0  0  0
   -2.1099   -0.6542   -1.2453 C   0  0  1  0  0  0  0  0  0  0  0  0
   -1.7778   -1.9829   -1.8740 C   0  0  0  0  0  0  0  0  0  0  0  0
   -1.0015   -2.7362   -1.3256 O   0  0  0  0  0  0  0  0  0  0  0  0
   -2.3435   -2.3340   -3.0459 N   0  0  0  0  0  0  0  0  0  0  0  0
   -2.0207   -3.6257   -3.6571 C   0  0  1  0  0  0  0  0  0  0  0  0
   -3.1774   -4.4405   -4.2393 C   0  0  1  0  0  0  0  0  0  0  0  0
   -2.1820   -3.7496   -5.1735 C   0  0  1  0  0  0  0  0  0  0  0  0
   -2.0922   -0.9227    1.4458 S   0  0  1  0  0  0  0  0  0  0  0  0
   -3.1196   -1.8512    1.1269 O   0  0  0  0  0  0  0  0  0  0  0  0
   -1.0393   -1.2108    2.3555 O   0  0  0  0  0  0  0  0  0  0  0  0
   -2.8978    0.5199    2.0580 C   0  0  0  0  0  0  0  0  0  0  0  0
   -2.2145    1.3947    2.8819 C   0  0  0  0  0  0  0  0  0  0  0  0
   -2.8438    2.5268    3.3629 C   0  0  0  0  0  0  0  0  0  0  0  0
   -4.1623    2.7852    3.0183 C   0  0  0  0  0  0  0  0  0  0  0  0
   -4.7833    3.8983    3.4897 O   0  0  0  0  0  0  0  0  0  0  0  0
   -4.0182    4.7590    4.3357 C   0  0  1  0  0  0  0  0  0  0  0  0
   -4.8460    1.9056    2.1912 C   0  0  0  0  0  0  0  0  0  0  0  0
   -6.2784    2.1836    1.8144 C   0  0  1  0  0  0  0  0  0  0  0  0
   -4.2107    0.7780    1.7088 C   0  0  0  0  0  0  0  0  0  0  0  0
    1.0039    1.9031    0.0027 H   0  0  0  0  0  0  0  0  0  0  0  0
   -0.5459    1.8868   -0.8726 H   0  0  0  0  0  0  0  0  0  0  0  0
   -0.5289    1.8773    0.9072 H   0  0  0  0  0  0  0  0  0  0  0  0
    0.5123   -0.3556   -0.8948 H   0  0  0  0  0  0  0  0  0  0  0  0
    0.5293   -0.3651    0.8851 H   0  0  0  0  0  0  0  0  0  0  0  0
   -3.1804   -0.6037   -1.0465 H   0  0  0  0  0  0  0  0  0  0  0  0
   -1.8283    0.1500   -1.9251 H   0  0  0  0  0  0  0  0  0  0  0  0
   -2.9644   -1.7315   -3.4845 H   0  0  0  0  0  0  0  0  0  0  0  0
   -1.2023   -4.1747   -3.1915 H   0  0  0  0  0  0  0  0  0  0  0  0
   -3.1202   -5.5258   -4.1567 H   0  0  0  0  0  0  0  0  0  0  0  0
   -4.1786   -4.0155   -4.1676 H   0  0  0  0  0  0  0  0  0  0  0  0
   -2.5282   -2.8702   -5.7164 H   0  0  0  0  0  0  0  0  0  0  0  0
   -1.4698   -4.3805   -5.7055 H   0  0  0  0  0  0  0  0  0  0  0  0
   -1.1880    1.1928    3.1502 H   0  0  0  0  0  0  0  0  0  0  0  0
   -2.3096    3.2097    4.0068 H   0  0  0  0  0  0  0  0  0  0  0  0
   -3.1442    5.1190    3.7928 H   0  0  0  0  0  0  0  0  0  0  0  0
   -4.6311    5.6072    4.6409 H   0  0  0  0  0  0  0  0  0  0  0  0
   -3.6955    4.2075    5.2188 H   0  0  0  0  0  0  0  0  0  0  0  0
   -6.3051    2.7770    0.9005 H   0  0  0  0  0  0  0  0  0  0  0  0
   -6.8006    1.2409    1.6510 H   0  0  0  0  0  0  0  0  0  0  0  0
   -6.7655    2.7340    2.6194 H   0  0  0  0  0  0  0  0  0  0  0  0
   -4.7423    0.0932    1.0646 H   0  0  0  0  0  0  0  0  0  0  0  0
  1  2  1  0
  1 23  1  6
  1 24  1  0
  1 25  1  0
  2  3  1  0
  2 26  1  6
  2 27  1  0
  3  4  1  0
 11  3  1  6
  4  5  1  0
  4 28  1  1
  4 29  1  0
  5  6  2  0
  5  7  1  0
  7  8  1  0
  7 30  1  0
  8 10  1  0
  8  9  1  0
  8 31  1  1
  9 10  1  0
  9 32  1  1
  9 33  1  0
 10 34  1  6
 10 35  1  0
 11 12  2  0
 11 13  2  0
 11 14  1  0
 14 22  2  0
 14 15  1  0
 15 16  2  0
 15 36  1  0
 16 17  1  0
 16 37  1  0
 17 18  1  0
 17 20  2  0
 18 19  1  0
 19 38  1  6
 19 39  1  0
 19 40  1  0
 20 21  1  0
 20 22  1  0
 21 41  1  6
 21 42  1  0
 21 43  1  0
 22 44  1  0
M  END
$$$$
