ZINC000409391479
     RDKit          3D

 60 61  0  0  1  0  0  0  0  0999 V2000
   -0.0187    1.5258    0.0104 C   0  0  1  0  0  0  0  0  0  0  0  0
    0.0021   -0.0041    0.0020 C   0  0  1  0  0  0  0  0  0  0  0  0
    0.7421   -0.5109    1.2415 C   0  0  1  0  0  0  0  0  0  0  0  0
    0.7628   -2.0407    1.2331 C   0  0  2  0  0  0  0  0  0  0  0  0
   -0.2567   -2.4175    1.1513 H   0  0  0  0  0  0  0  0  0  0  0  0
    1.3918   -2.5494    2.5318 C   0  0  1  0  0  0  0  0  0  0  0  0
    1.5508   -2.5122    0.0916 N   0  0  0  0  0  0  0  0  0  0  0  0
    1.3205   -3.7345   -0.4273 C   0  0  0  0  0  0  0  0  0  0  0  0
    0.4611   -4.4442    0.0507 O   0  0  0  0  0  0  0  0  0  0  0  0
    2.1311   -4.2195   -1.6016 C   0  0  1  0  0  0  0  0  0  0  0  0
    1.6924   -5.5665   -1.9748 N   0  0  0  0  0  0  0  0  0  0  0  0
    0.5477   -5.7417   -2.8721 C   0  0  1  0  0  0  0  0  0  0  0  0
    1.0128   -5.6533   -4.3029 C   0  0  0  0  0  0  0  0  0  0  0  0
    1.0416   -4.4300   -4.9459 C   0  0  0  0  0  0  0  0  0  0  0  0
    1.4682   -4.3489   -6.2583 C   0  0  0  0  0  0  0  0  0  0  0  0
    1.8664   -5.4911   -6.9275 C   0  0  0  0  0  0  0  0  0  0  0  0
    1.8385   -6.7143   -6.2841 C   0  0  0  0  0  0  0  0  0  0  0  0
    1.4159   -6.7947   -4.9704 C   0  0  0  0  0  0  0  0  0  0  0  0
    2.4905   -6.8911   -1.3824 S   0  0  1  0  0  0  0  0  0  0  0  0
    2.2389   -7.9519   -2.2938 O   0  0  0  0  0  0  0  0  0  0  0  0
    3.7986   -6.4524   -1.0423 O   0  0  0  0  0  0  0  0  0  0  0  0
    1.7066   -7.3386    0.1308 C   0  0  0  0  0  0  0  0  0  0  0  0
    2.1436   -6.7909    1.3221 C   0  0  0  0  0  0  0  0  0  0  0  0
    1.5320   -7.1393    2.5124 C   0  0  0  0  0  0  0  0  0  0  0  0
    0.4786   -8.0388    2.5124 C   0  0  0  0  0  0  0  0  0  0  0  0
   -0.1243   -8.3822    3.6821 O   0  0  0  0  0  0  0  0  0  0  0  0
    0.3802   -7.7767    4.8741 C   0  0  1  0  0  0  0  0  0  0  0  0
    0.0381   -8.5901    1.3126 C   0  0  0  0  0  0  0  0  0  0  0  0
   -0.9960   -9.4733    1.3074 O   0  0  0  0  0  0  0  0  0  0  0  0
   -1.3942   -9.9986    0.0395 C   0  0  1  0  0  0  0  0  0  0  0  0
    0.6518   -8.2329    0.1232 C   0  0  0  0  0  0  0  0  0  0  0  0
    1.0039    1.9031    0.0027 H   0  0  0  0  0  0  0  0  0  0  0  0
   -0.5459    1.8868   -0.8726 H   0  0  0  0  0  0  0  0  0  0  0  0
   -0.5289    1.8773    0.9072 H   0  0  0  0  0  0  0  0  0  0  0  0
   -1.0205   -0.3814    0.0098 H   0  0  0  0  0  0  0  0  0  0  0  0
    0.5123   -0.3556   -0.8948 H   0  0  0  0  0  0  0  0  0  0  0  0
    1.7647   -0.1336    1.2338 H   0  0  0  0  0  0  0  0  0  0  0  0
    0.2319   -0.1594    2.1383 H   0  0  0  0  0  0  0  0  0  0  0  0
    0.8055   -2.1987    3.3812 H   0  0  0  0  0  0  0  0  0  0  0  0
    1.4065   -3.6393    2.5258 H   0  0  0  0  0  0  0  0  0  0  0  0
    2.4113   -2.1727    2.6137 H   0  0  0  0  0  0  0  0  0  0  0  0
    2.2382   -1.9445   -0.2908 H   0  0  0  0  0  0  0  0  0  0  0  0
    1.9885   -3.5441   -2.4452 H   0  0  0  0  0  0  0  0  0  0  0  0
    3.1863   -4.2433   -1.3297 H   0  0  0  0  0  0  0  0  0  0  0  0
    0.0948   -6.7176   -2.6970 H   0  0  0  0  0  0  0  0  0  0  0  0
   -0.1875   -4.9602   -2.6801 H   0  0  0  0  0  0  0  0  0  0  0  0
    0.7305   -3.5377   -4.4231 H   0  0  0  0  0  0  0  0  0  0  0  0
    1.4901   -3.3932   -6.7609 H   0  0  0  0  0  0  0  0  0  0  0  0
    2.1990   -5.4278   -7.9530 H   0  0  0  0  0  0  0  0  0  0  0  0
    2.1493   -7.6067   -6.8070 H   0  0  0  0  0  0  0  0  0  0  0  0
    1.3941   -7.7504   -4.4677 H   0  0  0  0  0  0  0  0  0  0  0  0
    2.9648   -6.0895    1.3234 H   0  0  0  0  0  0  0  0  0  0  0  0
    1.8759   -6.7104    3.4420 H   0  0  0  0  0  0  0  0  0  0  0  0
   -0.1877   -8.1358    5.7324 H   0  0  0  0  0  0  0  0  0  0  0  0
    1.4309   -8.0389    4.9982 H   0  0  0  0  0  0  0  0  0  0  0  0
    0.2821   -6.6936    4.8010 H   0  0  0  0  0  0  0  0  0  0  0  0
   -2.2266  -10.6887    0.1774 H   0  0  0  0  0  0  0  0  0  0  0  0
   -1.7041   -9.1810   -0.6114 H   0  0  0  0  0  0  0  0  0  0  0  0
   -0.5558  -10.5267   -0.4145 H   0  0  0  0  0  0  0  0  0  0  0  0
    0.3120   -8.6592   -0.8091 H   0  0  0  0  0  0  0  0  0  0  0  0
  1  2  1  0
  1 32  1  6
  1 33  1  0
  1 34  1  0
  2  3  1  0
  2 35  1  1
  2 36  1  0
  3  4  1  0
  3 37  1  6
  3 38  1  0
  4  5  1  6
  4  6  1  0
  4  7  1  0
  6 39  1  1
  6 40  1  0
  6 41  1  0
  7  8  1  0
  7 42  1  0
  8  9  2  0
  8 10  1  0
 10 11  1  0
 10 43  1  6
 10 44  1  0
 11 12  1  0
 19 11  1  6
 12 13  1  0
 12 45  1  6
 12 46  1  0
 13 18  2  0
 13 14  1  0
 14 15  2  0
 14 47  1  0
 15 16  1  0
 15 48  1  0
 16 17  2  0
 16 49  1  0
 17 18  1  0
 17 50  1  0
 18 51  1  0
 19 20  2  0
 19 21  2  0
 19 22  1  0
 22 31  2  0
 22 23  1  0
 23 24  2  0
 23 52  1  0
 24 25  1  0
 24 53  1  0
 25 26  1  0
 25 28  2  0
 26 27  1  0
 27 54  1  1
 27 55  1  0
 27 56  1  0
 28 29  1  0
 28 31  1  0
 29 30  1  0
 30 57  1  1
 30 58  1  0
 30 59  1  0
 31 60  1  0
M  END
$$$$
