ZINC000408613100
     RDKit          3D

 59 60  0  0  0  0  0  0  0  0999 V2000
   -0.0187    1.5258    0.0104 C   0  0  1  0  0  0  0  0  0  0  0  0
    0.0021   -0.0041    0.0020 C   0  0  1  0  0  0  0  0  0  0  0  0
    0.6878   -0.4765   -1.2033 N   0  0  0  0  0  0  0  0  0  0  0  0
    2.1478   -0.5966   -1.2159 C   0  0  1  0  0  0  0  0  0  0  0  0
    2.5532   -1.9514   -0.6319 C   0  0  1  0  0  0  0  0  0  0  0  0
   -0.1875   -0.8749   -2.5515 S   0  0  1  0  0  0  0  0  0  0  0  0
    0.6166   -1.7761   -3.3001 O   0  0  0  0  0  0  0  0  0  0  0  0
   -1.4970   -1.1925   -2.1004 O   0  0  0  0  0  0  0  0  0  0  0  0
   -0.3375    0.5853   -3.5262 C   0  0  0  0  0  0  0  0  0  0  0  0
   -1.4064    1.4399   -3.3289 C   0  0  0  0  0  0  0  0  0  0  0  0
   -1.5263    2.5854   -4.0918 C   0  0  0  0  0  0  0  0  0  0  0  0
   -0.5728    2.8781   -5.0561 C   0  0  0  0  0  0  0  0  0  0  0  0
   -0.6883    4.0045   -5.8076 O   0  0  0  0  0  0  0  0  0  0  0  0
    0.3301    4.2420   -6.7815 C   0  0  1  0  0  0  0  0  0  0  0  0
    0.0367    5.5269   -7.5122 C   0  0  0  0  0  0  0  0  0  0  0  0
   -0.9477    6.1755   -7.2270 O   0  0  0  0  0  0  0  0  0  0  0  0
    0.8681    5.9553   -8.4825 N   0  0  0  0  0  0  0  0  0  0  0  0
    0.5828    7.2044   -9.1929 C   0  0  1  0  0  0  0  0  0  0  0  0
    1.1419    8.3839   -8.3948 C   0  0  1  0  0  0  0  0  0  0  0  0
    1.2074    9.6214   -9.2923 C   0  0  1  0  0  0  0  0  0  0  0  0
   -0.1987   10.1988   -9.4680 C   0  0  1  0  0  0  0  0  0  0  0  0
   -0.9874    9.3300  -10.4498 C   0  0  1  0  0  0  0  0  0  0  0  0
   -0.1023    8.9806  -11.6476 C   0  0  1  0  0  0  0  0  0  0  0  0
    0.1903    7.4787  -11.6450 C   0  0  1  0  0  0  0  0  0  0  0  0
    1.2381    7.1662  -10.5747 C   0  0  1  0  0  0  0  0  0  0  0  0
    0.4989    2.0192   -5.2518 C   0  0  0  0  0  0  0  0  0  0  0  0
    0.6169    0.8775   -4.4830 C   0  0  0  0  0  0  0  0  0  0  0  0
    1.0039    1.9031    0.0027 H   0  0  0  0  0  0  0  0  0  0  0  0
   -0.5459    1.8868   -0.8726 H   0  0  0  0  0  0  0  0  0  0  0  0
   -0.5289    1.8773    0.9072 H   0  0  0  0  0  0  0  0  0  0  0  0
    0.5293   -0.3651    0.8851 H   0  0  0  0  0  0  0  0  0  0  0  0
   -1.0205   -0.3814    0.0098 H   0  0  0  0  0  0  0  0  0  0  0  0
    2.5098   -0.5199   -2.2412 H   0  0  0  0  0  0  0  0  0  0  0  0
    2.5833    0.2026   -0.6162 H   0  0  0  0  0  0  0  0  0  0  0  0
    2.1912   -2.0280    0.3934 H   0  0  0  0  0  0  0  0  0  0  0  0
    2.1177   -2.7506   -1.2316 H   0  0  0  0  0  0  0  0  0  0  0  0
    3.6395   -2.0407   -0.6413 H   0  0  0  0  0  0  0  0  0  0  0  0
   -2.1483    1.2116   -2.5781 H   0  0  0  0  0  0  0  0  0  0  0  0
   -2.3617    3.2523   -3.9379 H   0  0  0  0  0  0  0  0  0  0  0  0
    1.2971    4.3193   -6.2845 H   0  0  0  0  0  0  0  0  0  0  0  0
    0.3522    3.4164   -7.4928 H   0  0  0  0  0  0  0  0  0  0  0  0
    1.6554    5.4366   -8.7106 H   0  0  0  0  0  0  0  0  0  0  0  0
   -0.4952    7.3204   -9.3052 H   0  0  0  0  0  0  0  0  0  0  0  0
    0.4926    8.5866   -7.5431 H   0  0  0  0  0  0  0  0  0  0  0  0
    2.1428    8.1399   -8.0388 H   0  0  0  0  0  0  0  0  0  0  0  0
    1.8527   10.3700   -8.8325 H   0  0  0  0  0  0  0  0  0  0  0  0
    1.6102    9.3431  -10.2661 H   0  0  0  0  0  0  0  0  0  0  0  0
   -0.7086   10.2131   -8.5047 H   0  0  0  0  0  0  0  0  0  0  0  0
   -0.1284   11.2146   -9.8571 H   0  0  0  0  0  0  0  0  0  0  0  0
   -1.3027    8.4133   -9.9514 H   0  0  0  0  0  0  0  0  0  0  0  0
   -1.8654    9.8765  -10.7941 H   0  0  0  0  0  0  0  0  0  0  0  0
   -0.6170    9.2488  -12.5702 H   0  0  0  0  0  0  0  0  0  0  0  0
    0.8348    9.5333  -11.5805 H   0  0  0  0  0  0  0  0  0  0  0  0
   -0.7262    6.9303  -11.4274 H   0  0  0  0  0  0  0  0  0  0  0  0
    0.5691    7.1805  -12.6226 H   0  0  0  0  0  0  0  0  0  0  0  0
    2.0355    7.9080  -10.6194 H   0  0  0  0  0  0  0  0  0  0  0  0
    1.6541    6.1744  -10.7522 H   0  0  0  0  0  0  0  0  0  0  0  0
    1.2423    2.2447   -6.0021 H   0  0  0  0  0  0  0  0  0  0  0  0
    1.4512    0.2087   -4.6347 H   0  0  0  0  0  0  0  0  0  0  0  0
  1  2  1  0
  1 28  1  6
  1 29  1  0
  1 30  1  0
  2  3  1  0
  2 31  1  1
  2 32  1  0
  3  4  1  0
  6  3  1  1
  4  5  1  0
  4 33  1  6
  4 34  1  0
  5 35  1  1
  5 36  1  0
  5 37  1  0
  6  7  2  0
  6  8  2  0
  6  9  1  0
  9 27  2  0
  9 10  1  0
 10 11  2  0
 10 38  1  0
 11 12  1  0
 11 39  1  0
 12 13  1  0
 12 26  2  0
 13 14  1  0
 14 15  1  0
 14 40  1  1
 14 41  1  0
 15 16  2  0
 15 17  1  0
 17 18  1  0
 17 42  1  0
 18 25  1  0
 18 19  1  0
 18 43  1  6
 19 20  1  0
 19 44  1  1
 19 45  1  0
 20 21  1  0
 20 46  1  1
 20 47  1  0
 21 22  1  0
 21 48  1  1
 21 49  1  0
 22 23  1  0
 22 50  1  1
 22 51  1  0
 23 24  1  0
 23 52  1  6
 23 53  1  0
 24 25  1  0
 24 54  1  1
 24 55  1  0
 25 56  1  1
 25 57  1  0
 26 27  1  0
 26 58  1  0
 27 59  1  0
M  END
$$$$
