ZINC000012982528
     RDKit          3D

 48 50  0  0  1  0  0  0  0  0999 V2000
  -10.4317   -8.4475    2.0254 C   0  0  1  0  0  0  0  0  0  0  0  0
  -10.2895   -7.0772    2.4050 O   0  0  0  0  0  0  0  0  0  0  0  0
   -9.1560   -6.4414    2.0079 C   0  0  0  0  0  0  0  0  0  0  0  0
   -8.2028   -7.1207    1.2631 C   0  0  0  0  0  0  0  0  0  0  0  0
   -7.0516   -6.4720    0.8602 C   0  0  0  0  0  0  0  0  0  0  0  0
   -6.8487   -5.1470    1.1989 C   0  0  0  0  0  0  0  0  0  0  0  0
   -5.3791   -4.3226    0.6839 S   0  0  1  0  0  0  0  0  0  0  0  0
   -5.2485   -3.1781    1.5159 O   0  0  0  0  0  0  0  0  0  0  0  0
   -4.3754   -5.3226    0.5746 O   0  0  0  0  0  0  0  0  0  0  0  0
   -5.6456   -3.7579   -0.8498 N   0  0  0  0  0  0  0  0  0  0  0  0
   -6.3007   -2.4829   -1.1942 C   0  0  1  0  0  0  0  0  0  0  0  0
   -5.7679   -2.1319   -2.6058 C   0  0  1  0  0  0  0  0  0  0  0  0
   -5.6881   -3.5337   -3.2661 C   0  0  1  0  0  0  0  0  0  0  0  0
   -5.2624   -4.4420   -2.0934 C   0  0  1  0  0  0  0  0  0  0  0  0
   -5.7802   -5.3989   -2.1589 H   0  0  0  0  0  0  0  0  0  0  0  0
   -3.7720   -4.6623   -2.1307 C   0  0  0  0  0  0  0  0  0  0  0  0
   -3.0428   -3.9961   -1.4269 O   0  0  0  0  0  0  0  0  0  0  0  0
   -3.2496   -5.5996   -2.9461 N   0  0  0  0  0  0  0  0  0  0  0  0
   -1.8615   -5.7450   -3.0459 C   0  0  0  0  0  0  0  0  0  0  0  0
   -1.3080   -6.9972   -3.2788 C   0  0  0  0  0  0  0  0  0  0  0  0
    0.0625   -7.1374   -3.3768 C   0  0  0  0  0  0  0  0  0  0  0  0
    0.8834   -6.0327   -3.2428 C   0  0  0  0  0  0  0  0  0  0  0  0
    2.3784   -6.1894   -3.3497 C   0  0  1  0  0  0  0  0  0  0  0  0
    2.7700   -6.0274   -4.6830 F   0  0  0  0  0  0  0  0  0  0  0  0
    3.0065   -5.2217   -2.5584 F   0  0  0  0  0  0  0  0  0  0  0  0
    2.7465   -7.4644   -2.9071 F   0  0  0  0  0  0  0  0  0  0  0  0
    0.3353   -4.7844   -3.0113 C   0  0  0  0  0  0  0  0  0  0  0  0
   -1.0347   -4.6366   -2.9180 C   0  0  0  0  0  0  0  0  0  0  0  0
   -7.7974   -4.4676    1.9407 C   0  0  0  0  0  0  0  0  0  0  0  0
   -8.9526   -5.1102    2.3416 C   0  0  0  0  0  0  0  0  0  0  0  0
  -11.3777   -8.8334    2.4051 H   0  0  0  0  0  0  0  0  0  0  0  0
  -10.4169   -8.5268    0.9384 H   0  0  0  0  0  0  0  0  0  0  0  0
   -9.6088   -9.0275    2.4432 H   0  0  0  0  0  0  0  0  0  0  0  0
   -8.3605   -8.1560    0.9988 H   0  0  0  0  0  0  0  0  0  0  0  0
   -6.3093   -7.0005    0.2804 H   0  0  0  0  0  0  0  0  0  0  0  0
   -7.3834   -2.6068   -1.2173 H   0  0  0  0  0  0  0  0  0  0  0  0
   -6.0219   -1.7081   -0.4800 H   0  0  0  0  0  0  0  0  0  0  0  0
   -6.4678   -1.4883   -3.1387 H   0  0  0  0  0  0  0  0  0  0  0  0
   -4.7820   -1.6706   -2.5477 H   0  0  0  0  0  0  0  0  0  0  0  0
   -6.6611   -3.8321   -3.6563 H   0  0  0  0  0  0  0  0  0  0  0  0
   -4.9350   -3.5465   -4.0539 H   0  0  0  0  0  0  0  0  0  0  0  0
   -3.8358   -6.1734   -3.4638 H   0  0  0  0  0  0  0  0  0  0  0  0
   -1.9485   -7.8605   -3.3829 H   0  0  0  0  0  0  0  0  0  0  0  0
    0.4936   -8.1109   -3.5579 H   0  0  0  0  0  0  0  0  0  0  0  0
    0.9791   -3.9235   -2.9071 H   0  0  0  0  0  0  0  0  0  0  0  0
   -1.4622   -3.6614   -2.7372 H   0  0  0  0  0  0  0  0  0  0  0  0
   -7.6367   -3.4325    2.2038 H   0  0  0  0  0  0  0  0  0  0  0  0
   -9.6933   -4.5791    2.9210 H   0  0  0  0  0  0  0  0  0  0  0  0
  1  2  1  0
  1 31  1  1
  1 32  1  0
  1 33  1  0
  2  3  1  0
  3 30  2  0
  3  4  1  0
  4  5  2  0
  4 34  1  0
  5  6  1  0
  5 35  1  0
  6  7  1  0
  6 29  2  0
  7  8  2  0
  7  9  2  0
  7 10  1  6
 10 14  1  0
 10 11  1  0
 11 12  1  0
 11 36  1  6
 11 37  1  0
 12 13  1  0
 12 38  1  6
 12 39  1  0
 13 14  1  0
 13 40  1  6
 13 41  1  0
 14 15  1  6
 14 16  1  0
 16 17  2  0
 16 18  1  0
 18 19  1  0
 18 42  1  0
 19 28  2  0
 19 20  1  0
 20 21  2  0
 20 43  1  0
 21 22  1  0
 21 44  1  0
 22 23  1  0
 22 27  2  0
 23 24  1  6
 23 25  1  0
 23 26  1  0
 27 28  1  0
 27 45  1  0
 28 46  1  0
 29 30  1  0
 29 47  1  0
 30 48  1  0
M  END
$$$$
