ZINC000012758371
     RDKit          3D

 55 57  0  0  0  0  0  0  0  0999 V2000
    0.0021   -0.0041    0.0020 O   0  0  0  0  0  0  0  0  0  0  0  0
   -0.0144    1.2117    0.0087 C   0  0  0  0  0  0  0  0  0  0  0  0
    1.1435    1.9014    0.0014 N   0  0  0  0  0  0  0  0  0  0  0  0
    2.4220    1.1862   -0.0147 C   0  0  1  0  0  0  0  0  0  0  0  0
    3.5540    2.1810   -0.0202 C   0  0  0  0  0  0  0  0  0  0  0  0
    4.0580    2.6480   -1.2197 C   0  0  0  0  0  0  0  0  0  0  0  0
    5.0963    3.5605   -1.2247 C   0  0  0  0  0  0  0  0  0  0  0  0
    5.6304    4.0063   -0.0302 C   0  0  0  0  0  0  0  0  0  0  0  0
    6.7627    5.0007   -0.0357 C   0  0  1  0  0  0  0  0  0  0  0  0
    6.2429    6.2995   -0.0182 F   0  0  0  0  0  0  0  0  0  0  0  0
    7.5623    4.8032    1.0952 F   0  0  0  0  0  0  0  0  0  0  0  0
    7.5342    4.8227   -1.1891 F   0  0  0  0  0  0  0  0  0  0  0  0
    5.1255    3.5404    1.1693 C   0  0  0  0  0  0  0  0  0  0  0  0
    4.0846    2.6308    1.1744 C   0  0  0  0  0  0  0  0  0  0  0  0
   -1.1906    1.8696    0.0179 N   0  0  0  0  0  0  0  0  0  0  0  0
   -2.4493    1.1200    0.0198 C   0  0  1  0  0  0  0  0  0  0  0  0
   -3.6079    2.0836    0.0305 C   0  0  0  0  0  0  0  0  0  0  0  0
   -4.1300    2.5234    1.2325 C   0  0  0  0  0  0  0  0  0  0  0  0
   -5.1927    3.4073    1.2424 C   0  0  0  0  0  0  0  0  0  0  0  0
   -5.7331    3.8518    0.0502 C   0  0  0  0  0  0  0  0  0  0  0  0
   -7.0882    4.9780    0.0627 S   0  0  1  0  0  0  0  0  0  0  0  0
   -7.7540    4.8185   -1.1824 O   0  0  0  0  0  0  0  0  0  0  0  0
   -7.7355    4.8130    1.3170 O   0  0  0  0  0  0  0  0  0  0  0  0
   -6.4541    6.5078    0.0614 N   0  0  0  0  0  0  0  0  0  0  0  0
   -6.1525    7.1942    1.3250 C   0  0  1  0  0  0  0  0  0  0  0  0
   -4.6945    7.6634    1.2954 C   0  0  1  0  0  0  0  0  0  0  0  0
   -4.4625    8.5161    0.0459 C   0  0  1  0  0  0  0  0  0  0  0  0
   -4.7242    7.6736   -1.2046 C   0  0  1  0  0  0  0  0  0  0  0  0
   -6.1769    7.2021   -1.2034 C   0  0  1  0  0  0  0  0  0  0  0  0
   -5.2102    3.4130   -1.1519 C   0  0  0  0  0  0  0  0  0  0  0  0
   -4.1450    2.5320   -1.1617 C   0  0  0  0  0  0  0  0  0  0  0  0
    1.1303    2.8713    0.0067 H   0  0  0  0  0  0  0  0  0  0  0  0
    2.4967    0.5556    0.8712 H   0  0  0  0  0  0  0  0  0  0  0  0
    2.4797    0.5652   -0.9086 H   0  0  0  0  0  0  0  0  0  0  0  0
    3.6407    2.2996   -2.1529 H   0  0  0  0  0  0  0  0  0  0  0  0
    5.4905    3.9247   -2.1619 H   0  0  0  0  0  0  0  0  0  0  0  0
    5.5425    3.8891    2.1026 H   0  0  0  0  0  0  0  0  0  0  0  0
    3.6901    2.2668    2.1116 H   0  0  0  0  0  0  0  0  0  0  0  0
   -1.2038    2.8395    0.0232 H   0  0  0  0  0  0  0  0  0  0  0  0
   -2.5027    0.4974   -0.8734 H   0  0  0  0  0  0  0  0  0  0  0  0
   -2.4943    0.4877    0.9065 H   0  0  0  0  0  0  0  0  0  0  0  0
   -3.7077    2.1762    2.1640 H   0  0  0  0  0  0  0  0  0  0  0  0
   -5.6011    3.7504    2.1815 H   0  0  0  0  0  0  0  0  0  0  0  0
   -6.8111    8.0551    1.4394 H   0  0  0  0  0  0  0  0  0  0  0  0
   -6.2982    6.5067    2.1582 H   0  0  0  0  0  0  0  0  0  0  0  0
   -4.4853    8.2572    2.1851 H   0  0  0  0  0  0  0  0  0  0  0  0
   -4.0338    6.7967    1.2722 H   0  0  0  0  0  0  0  0  0  0  0  0
   -5.1407    9.3693    0.0575 H   0  0  0  0  0  0  0  0  0  0  0  0
   -3.4321    8.8716    0.0351 H   0  0  0  0  0  0  0  0  0  0  0  0
   -4.5362    8.2747   -2.0942 H   0  0  0  0  0  0  0  0  0  0  0  0
   -4.0633    6.8068   -1.2042 H   0  0  0  0  0  0  0  0  0  0  0  0
   -6.3409    6.5216   -2.0389 H   0  0  0  0  0  0  0  0  0  0  0  0
   -6.8403    8.0622   -1.2943 H   0  0  0  0  0  0  0  0  0  0  0  0
   -5.6322    3.7605   -2.0833 H   0  0  0  0  0  0  0  0  0  0  0  0
   -3.7364    2.1892   -2.1008 H   0  0  0  0  0  0  0  0  0  0  0  0
  1  2  2  0
  2  3  1  0
  2 15  1  0
  3  4  1  0
  3 32  1  0
  4  5  1  0
  4 33  1  1
  4 34  1  0
  5 14  2  0
  5  6  1  0
  6  7  2  0
  6 35  1  0
  7  8  1  0
  7 36  1  0
  8  9  1  0
  8 13  2  0
  9 10  1  1
  9 11  1  0
  9 12  1  0
 13 14  1  0
 13 37  1  0
 14 38  1  0
 15 16  1  0
 15 39  1  0
 16 17  1  0
 16 40  1  6
 16 41  1  0
 17 31  2  0
 17 18  1  0
 18 19  2  0
 18 42  1  0
 19 20  1  0
 19 43  1  0
 20 21  1  0
 20 30  2  0
 21 22  2  0
 21 23  2  0
 21 24  1  1
 24 29  1  0
 24 25  1  0
 25 26  1  0
 25 44  1  1
 25 45  1  0
 26 27  1  0
 26 46  1  1
 26 47  1  0
 27 28  1  0
 27 48  1  1
 27 49  1  0
 28 29  1  0
 28 50  1  6
 28 51  1  0
 29 52  1  6
 29 53  1  0
 30 31  1  0
 30 54  1  0
 31 55  1  0
M  END
$$$$
