ZINC000096098257
     RDKit          3D

 40 41  0  0  0  0  0  0  0  0999 V2000
    0.4923    2.8313   -1.3933 C   0  0  1  0  0  0  0  0  0  0  0  0
    0.7102    1.1813   -0.6718 S   0  0  1  0  0  0  0  0  0  0  0  0
    1.8106    1.2216    0.2263 O   0  0  0  0  0  0  0  0  0  0  0  0
   -0.5505    0.7216   -0.2042 O   0  0  0  0  0  0  0  0  0  0  0  0
    1.1827    0.1980   -2.1211 C   0  0  1  0  0  0  0  0  0  0  0  0
    2.4692    0.7658   -2.7250 C   0  0  1  0  0  0  0  0  0  0  0  0
    2.8462   -0.0455   -3.9686 C   0  0  1  0  0  0  0  0  0  0  0  0
    2.9280   -1.4654   -3.6000 N   0  0  0  0  0  0  0  0  0  0  0  0
    4.0367   -2.1824   -3.8705 C   0  0  0  0  0  0  0  0  0  0  0  0
    4.9488   -1.6783   -4.4969 O   0  0  0  0  0  0  0  0  0  0  0  0
    4.1344   -3.4580   -3.4468 N   0  0  0  0  0  0  0  0  0  0  0  0
    5.3390   -4.1546   -3.5960 C   0  0  0  0  0  0  0  0  0  0  0  0
    6.5492   -3.4807   -3.4981 C   0  0  0  0  0  0  0  0  0  0  0  0
    7.7363   -4.1711   -3.6455 C   0  0  0  0  0  0  0  0  0  0  0  0
    7.7205   -5.5320   -3.8902 C   0  0  0  0  0  0  0  0  0  0  0  0
    9.0176   -6.2822   -4.0505 C   0  0  1  0  0  0  0  0  0  0  0  0
    9.4442   -6.7481   -2.8022 F   0  0  0  0  0  0  0  0  0  0  0  0
    8.8254   -7.3673   -4.9124 F   0  0  0  0  0  0  0  0  0  0  0  0
    9.9875   -5.4278   -4.5856 F   0  0  0  0  0  0  0  0  0  0  0  0
    6.5171   -6.2061   -3.9878 C   0  0  0  0  0  0  0  0  0  0  0  0
    5.3266   -5.5222   -3.8367 C   0  0  0  0  0  0  0  0  0  0  0  0
    1.7783   -2.0889   -2.9304 C   0  0  1  0  0  0  0  0  0  0  0  0
    1.4133   -1.2547   -1.6985 C   0  0  1  0  0  0  0  0  0  0  0  0
    1.4296    3.1574   -1.8442 H   0  0  0  0  0  0  0  0  0  0  0  0
   -0.2847    2.7943   -2.1568 H   0  0  0  0  0  0  0  0  0  0  0  0
    0.2011    3.5338   -0.6123 H   0  0  0  0  0  0  0  0  0  0  0  0
    0.3851    0.2382   -2.8629 H   0  0  0  0  0  0  0  0  0  0  0  0
    2.3112    1.8075   -3.0043 H   0  0  0  0  0  0  0  0  0  0  0  0
    3.2736    0.7031   -1.9921 H   0  0  0  0  0  0  0  0  0  0  0  0
    2.0852    0.0892   -4.7373 H   0  0  0  0  0  0  0  0  0  0  0  0
    3.8124    0.2905   -4.3450 H   0  0  0  0  0  0  0  0  0  0  0  0
    3.3698   -3.8933   -3.0383 H   0  0  0  0  0  0  0  0  0  0  0  0
    6.5622   -2.4178   -3.3073 H   0  0  0  0  0  0  0  0  0  0  0  0
    8.6778   -3.6475   -3.5698 H   0  0  0  0  0  0  0  0  0  0  0  0
    6.5081   -7.2690   -4.1787 H   0  0  0  0  0  0  0  0  0  0  0  0
    4.3870   -6.0493   -3.9127 H   0  0  0  0  0  0  0  0  0  0  0  0
    0.9303   -2.1208   -3.6145 H   0  0  0  0  0  0  0  0  0  0  0  0
    2.0398   -3.1010   -2.6219 H   0  0  0  0  0  0  0  0  0  0  0  0
    2.2276   -1.2983   -0.9753 H   0  0  0  0  0  0  0  0  0  0  0  0
    0.5037   -1.6510   -1.2472 H   0  0  0  0  0  0  0  0  0  0  0  0
  1  2  1  0
  1 24  1  6
  1 25  1  0
  1 26  1  0
  2  3  2  0
  2  4  2  0
  2  5  1  6
  5 23  1  0
  5  6  1  0
  5 27  1  6
  6  7  1  0
  6 28  1  6
  6 29  1  0
  7  8  1  0
  7 30  1  6
  7 31  1  0
  8  9  1  0
  8 22  1  0
  9 10  2  0
  9 11  1  0
 11 12  1  0
 11 32  1  0
 12 21  2  0
 12 13  1  0
 13 14  2  0
 13 33  1  0
 14 15  1  0
 14 34  1  0
 15 16  1  0
 15 20  2  0
 16 17  1  1
 16 18  1  0
 16 19  1  0
 20 21  1  0
 20 35  1  0
 21 36  1  0
 22 23  1  0
 22 37  1  6
 22 38  1  0
 23 39  1  1
 23 40  1  0
M  END
$$$$
