ZINC000016650620
     RDKit          3D

 45 46  0  0  1  0  0  0  0  0999 V2000
   -0.0178    1.4608    0.0101 C   0  0  1  0  0  0  0  0  0  0  0  0
    0.0021   -0.0041    0.0020 N   0  0  0  0  0  0  0  0  0  0  0  0
    0.0241   -0.7433    1.2666 C   0  0  1  0  0  0  0  0  0  0  0  0
   -0.0004   -0.8243   -1.4366 S   0  0  1  0  0  0  0  0  0  0  0  0
   -0.5247   -2.1160   -1.1611 O   0  0  0  0  0  0  0  0  0  0  0  0
   -0.5660    0.0551   -2.3989 O   0  0  0  0  0  0  0  0  0  0  0  0
    1.6816   -1.0597   -1.9056 C   0  0  0  0  0  0  0  0  0  0  0  0
    2.3224   -0.1085   -2.6779 C   0  0  0  0  0  0  0  0  0  0  0  0
    3.6411   -0.2907   -3.0469 C   0  0  0  0  0  0  0  0  0  0  0  0
    4.3226   -1.4291   -2.6417 C   0  0  0  0  0  0  0  0  0  0  0  0
    5.6201   -1.6104   -3.0031 O   0  0  0  0  0  0  0  0  0  0  0  0
    6.2587   -2.8058   -2.5500 C   0  0  1  0  0  0  0  0  0  0  0  0
    7.6821   -2.8332   -3.0443 C   0  0  0  0  0  0  0  0  0  0  0  0
    8.1077   -1.9191   -3.7182 O   0  0  0  0  0  0  0  0  0  0  0  0
    8.4821   -3.8735   -2.7374 N   0  0  0  0  0  0  0  0  0  0  0  0
    9.8658   -3.9002   -3.2179 C   0  0  1  0  0  0  0  0  0  0  0  0
   10.5496   -5.1800   -2.7328 C   0  0  2  0  0  0  0  0  0  0  0  0
   10.4573   -5.2607   -1.6497 H   0  0  0  0  0  0  0  0  0  0  0  0
   12.0410   -5.1604   -3.1314 C   0  0  1  0  0  0  0  0  0  0  0  0
   12.2928   -6.6378   -3.5385 C   0  0  1  0  0  0  0  0  0  0  0  0
   10.9226   -7.0095   -4.1592 C   0  0  1  0  0  0  0  0  0  0  0  0
    9.9476   -6.3196   -3.3579 O   0  0  0  0  0  0  0  0  0  0  0  0
    3.6776   -2.3818   -1.8665 C   0  0  0  0  0  0  0  0  0  0  0  0
    2.3603   -2.1926   -1.4960 C   0  0  0  0  0  0  0  0  0  0  0  0
    1.0048    1.8381    0.0023 H   0  0  0  0  0  0  0  0  0  0  0  0
   -0.5450    1.8219   -0.8730 H   0  0  0  0  0  0  0  0  0  0  0  0
   -0.5280    1.8123    0.9069 H   0  0  0  0  0  0  0  0  0  0  0  0
    0.0224   -0.0395    2.0990 H   0  0  0  0  0  0  0  0  0  0  0  0
   -0.8567   -1.3823    1.3294 H   0  0  0  0  0  0  0  0  0  0  0  0
    0.9230   -1.3581    1.3125 H   0  0  0  0  0  0  0  0  0  0  0  0
    1.7914    0.7776   -2.9931 H   0  0  0  0  0  0  0  0  0  0  0  0
    4.1409    0.4522   -3.6507 H   0  0  0  0  0  0  0  0  0  0  0  0
    6.2520   -2.8307   -1.4603 H   0  0  0  0  0  0  0  0  0  0  0  0
    5.7231   -3.6729   -2.9365 H   0  0  0  0  0  0  0  0  0  0  0  0
    8.1417   -4.6046   -2.1984 H   0  0  0  0  0  0  0  0  0  0  0  0
    9.8725   -3.8753   -4.3076 H   0  0  0  0  0  0  0  0  0  0  0  0
   10.4014   -3.0331   -2.8314 H   0  0  0  0  0  0  0  0  0  0  0  0
   12.2081   -4.4915   -3.9756 H   0  0  0  0  0  0  0  0  0  0  0  0
   12.6655   -4.8799   -2.2832 H   0  0  0  0  0  0  0  0  0  0  0  0
   13.0913   -6.7112   -4.2768 H   0  0  0  0  0  0  0  0  0  0  0  0
   12.5090   -7.2544   -2.6660 H   0  0  0  0  0  0  0  0  0  0  0  0
   10.8714   -6.6703   -5.1938 H   0  0  0  0  0  0  0  0  0  0  0  0
   10.7622   -8.0863   -4.1048 H   0  0  0  0  0  0  0  0  0  0  0  0
    4.2059   -3.2690   -1.5500 H   0  0  0  0  0  0  0  0  0  0  0  0
    1.8578   -2.9338   -0.8923 H   0  0  0  0  0  0  0  0  0  0  0  0
  1  2  1  0
  1 25  1  6
  1 26  1  0
  1 27  1  0
  2  3  1  0
  4  2  1  1
  3 28  1  1
  3 29  1  0
  3 30  1  0
  4  5  2  0
  4  6  2  0
  4  7  1  0
  7 24  2  0
  7  8  1  0
  8  9  2  0
  8 31  1  0
  9 10  1  0
  9 32  1  0
 10 11  1  0
 10 23  2  0
 11 12  1  0
 12 13  1  0
 12 33  1  1
 12 34  1  0
 13 14  2  0
 13 15  1  0
 15 16  1  0
 15 35  1  0
 16 17  1  0
 16 36  1  6
 16 37  1  0
 17 18  1  1
 17 22  1  0
 17 19  1  0
 19 20  1  0
 19 38  1  6
 19 39  1  0
 20 21  1  0
 20 40  1  6
 20 41  1  0
 21 22  1  0
 21 42  1  6
 21 43  1  0
 23 24  1  0
 23 44  1  0
 24 45  1  0
M  END
$$$$
