ZINC000028427938
     RDKit          3D

 60 62  0  0  1  0  0  0  0  0999 V2000
    0.3069    1.4908    0.1578 C   0  0  1  0  0  0  0  0  0  0  0  0
   -0.0178    0.0047   -0.0061 C   0  0  1  0  0  0  0  0  0  0  0  0
    0.4261   -0.7554    1.2454 C   0  0  1  0  0  0  0  0  0  0  0  0
   -1.5254   -0.1695   -0.2007 C   0  0  1  0  0  0  0  0  0  0  0  0
    0.7100   -0.5389   -1.2085 C   0  0  0  0  0  0  0  0  0  0  0  0
    1.2690    0.2190   -1.9728 O   0  0  0  0  0  0  0  0  0  0  0  0
    0.7398   -1.8672   -1.4346 N   0  0  0  0  0  0  0  0  0  0  0  0
    0.0318   -2.8896   -0.6429 C   0  0  1  0  0  0  0  0  0  0  0  0
   -0.1380   -4.0903   -1.6068 C   0  0  1  0  0  0  0  0  0  0  0  0
    1.1981   -4.0487   -2.3945 C   0  0  1  0  0  0  0  0  0  0  0  0
    1.4787   -2.5361   -2.5154 C   0  0  1  0  0  0  0  0  0  0  0  0
    2.5459   -2.3467   -2.4005 H   0  0  0  0  0  0  0  0  0  0  0  0
    1.0107   -2.0337   -3.8569 C   0  0  0  0  0  0  0  0  0  0  0  0
    0.1453   -1.1862   -3.9189 O   0  0  0  0  0  0  0  0  0  0  0  0
    1.5538   -2.5262   -4.9879 N   0  0  0  0  0  0  0  0  0  0  0  0
    2.5989   -3.5578   -4.9281 C   0  0  1  0  0  0  0  0  0  0  0  0
    2.1493   -4.7600   -5.7676 C   0  0  1  0  0  0  0  0  0  0  0  0
    1.7067   -4.2754   -7.0826 N   0  0  0  0  0  0  0  0  0  0  0  0
    2.3733   -4.8813   -8.4722 S   0  0  1  0  0  0  0  0  0  0  0  0
    2.1822   -3.8914   -9.4736 O   0  0  0  0  0  0  0  0  0  0  0  0
    3.6515   -5.3896   -8.1156 O   0  0  0  0  0  0  0  0  0  0  0  0
    1.4022   -6.2704   -8.9539 C   0  0  0  0  0  0  0  0  0  0  0  0
    1.7216   -7.5320   -8.4879 C   0  0  0  0  0  0  0  0  0  0  0  0
    0.9597   -8.6218   -8.8659 C   0  0  0  0  0  0  0  0  0  0  0  0
   -0.1218   -8.4498   -9.7094 C   0  0  0  0  0  0  0  0  0  0  0  0
   -0.9521   -9.6379  -10.1219 C   0  0  1  0  0  0  0  0  0  0  0  0
   -1.9936   -9.8197   -9.2057 F   0  0  0  0  0  0  0  0  0  0  0  0
   -1.4854   -9.4146  -11.3958 F   0  0  0  0  0  0  0  0  0  0  0  0
   -0.1481  -10.7826  -10.1470 F   0  0  0  0  0  0  0  0  0  0  0  0
   -0.4421   -7.1880  -10.1743 C   0  0  0  0  0  0  0  0  0  0  0  0
    0.3175   -6.0977   -9.7933 C   0  0  0  0  0  0  0  0  0  0  0  0
    0.6617   -3.2438   -7.1423 C   0  0  1  0  0  0  0  0  0  0  0  0
    1.1073   -2.0456   -6.3030 C   0  0  1  0  0  0  0  0  0  0  0  0
    1.3809    1.6149    0.2964 H   0  0  0  0  0  0  0  0  0  0  0  0
   -0.0093    2.0323   -0.7338 H   0  0  0  0  0  0  0  0  0  0  0  0
   -0.2196    1.8840    1.0275 H   0  0  0  0  0  0  0  0  0  0  0  0
   -0.1004   -0.3622    2.1151 H   0  0  0  0  0  0  0  0  0  0  0  0
    0.1947   -1.8141    1.1286 H   0  0  0  0  0  0  0  0  0  0  0  0
    1.5001   -0.6312    1.3840 H   0  0  0  0  0  0  0  0  0  0  0  0
   -1.8634    0.4731   -1.0136 H   0  0  0  0  0  0  0  0  0  0  0  0
   -1.7424   -1.2093   -0.4454 H   0  0  0  0  0  0  0  0  0  0  0  0
   -2.0443    0.1035    0.7181 H   0  0  0  0  0  0  0  0  0  0  0  0
    0.6278   -3.1792    0.2226 H   0  0  0  0  0  0  0  0  0  0  0  0
   -0.9423   -2.5168   -0.3261 H   0  0  0  0  0  0  0  0  0  0  0  0
   -0.2366   -5.0244   -1.0538 H   0  0  0  0  0  0  0  0  0  0  0  0
   -0.9884   -3.9403   -2.2719 H   0  0  0  0  0  0  0  0  0  0  0  0
    1.9903   -4.5482   -1.8368 H   0  0  0  0  0  0  0  0  0  0  0  0
    1.0783   -4.4965   -3.3810 H   0  0  0  0  0  0  0  0  0  0  0  0
    3.5302   -3.1587   -5.3301 H   0  0  0  0  0  0  0  0  0  0  0  0
    2.7473   -3.8687   -3.8940 H   0  0  0  0  0  0  0  0  0  0  0  0
    2.9832   -5.4504   -5.8939 H   0  0  0  0  0  0  0  0  0  0  0  0
    1.3239   -5.2670   -5.2678 H   0  0  0  0  0  0  0  0  0  0  0  0
    2.5665   -7.6663   -7.8289 H   0  0  0  0  0  0  0  0  0  0  0  0
    1.2097   -9.6076   -8.5024 H   0  0  0  0  0  0  0  0  0  0  0  0
   -1.2873   -7.0536  -10.8331 H   0  0  0  0  0  0  0  0  0  0  0  0
    0.0673   -5.1118  -10.1565 H   0  0  0  0  0  0  0  0  0  0  0  0
    0.5132   -2.9329   -8.1764 H   0  0  0  0  0  0  0  0  0  0  0  0
   -0.2696   -3.6429   -6.7404 H   0  0  0  0  0  0  0  0  0  0  0  0
    0.2725   -1.3561   -6.1775 H   0  0  0  0  0  0  0  0  0  0  0  0
    1.9332   -1.5373   -6.8006 H   0  0  0  0  0  0  0  0  0  0  0  0
  1  2  1  0
  1 34  1  1
  1 35  1  0
  1 36  1  0
  2  3  1  0
  2  4  1  0
  2  5  1  6
  3 37  1  1
  3 38  1  0
  3 39  1  0
  4 40  1  6
  4 41  1  0
  4 42  1  0
  5  6  2  0
  5  7  1  0
  7 11  1  0
  7  8  1  0
  8  9  1  0
  8 43  1  1
  8 44  1  0
  9 10  1  0
  9 45  1  1
  9 46  1  0
 10 11  1  0
 10 47  1  1
 10 48  1  0
 11 12  1  1
 11 13  1  0
 13 14  2  0
 13 15  1  0
 15 33  1  0
 15 16  1  0
 16 17  1  0
 16 49  1  6
 16 50  1  0
 17 18  1  0
 17 51  1  6
 17 52  1  0
 19 18  1  1
 18 32  1  0
 19 20  2  0
 19 21  2  0
 19 22  1  0
 22 31  2  0
 22 23  1  0
 23 24  2  0
 23 53  1  0
 24 25  1  0
 24 54  1  0
 25 26  1  0
 25 30  2  0
 26 27  1  1
 26 28  1  0
 26 29  1  0
 30 31  1  0
 30 55  1  0
 31 56  1  0
 32 33  1  0
 32 57  1  6
 32 58  1  0
 33 59  1  1
 33 60  1  0
M  END
$$$$
