ZINC000154173690
     RDKit          3D

 38 40  0  0  1  0  0  0  0  0999 V2000
   -0.2468    0.1925    0.1428 O   0  0  0  0  0  0  0  0  0  0  0  0
   -0.1007    1.3941    0.0679 C   0  0  0  0  0  0  0  0  0  0  0  0
   -1.1873    2.1676    0.0549 N   0  0  0  0  0  0  0  0  0  0  0  0
   -1.1711    3.6132   -0.1214 C   0  0  1  0  0  0  0  0  0  0  0  0
    0.1975    4.1895    0.2466 C   0  0  1  0  0  0  0  0  0  0  0  0
    1.2326    3.3606   -0.3940 N   0  0  0  0  0  0  0  0  0  0  0  0
    2.2805    3.9981   -1.5065 S   0  0  1  0  0  0  0  0  0  0  0  0
    2.6568    2.8881   -2.3099 O   0  0  0  0  0  0  0  0  0  0  0  0
    1.5744    5.0989   -2.0624 O   0  0  0  0  0  0  0  0  0  0  0  0
    3.6892    4.5775   -0.5214 C   0  0  1  0  0  0  0  0  0  0  0  0
    5.0150    3.8297   -0.6766 C   0  0  1  0  0  0  0  0  0  0  0  0
    4.8531    5.2310   -1.2692 C   0  0  1  0  0  0  0  0  0  0  0  0
    1.2979    1.9441    0.0001 C   0  0  1  0  0  0  0  0  0  0  0  0
    1.8689    1.3849   -0.7411 H   0  0  0  0  0  0  0  0  0  0  0  0
    1.9651    1.8250    1.3461 C   0  0  0  0  0  0  0  0  0  0  0  0
    3.1699    1.1574    1.4636 C   0  0  0  0  0  0  0  0  0  0  0  0
    3.7819    1.0481    2.6983 C   0  0  0  0  0  0  0  0  0  0  0  0
    3.1894    1.6068    3.8153 C   0  0  0  0  0  0  0  0  0  0  0  0
    3.8564    1.4872    5.1614 C   0  0  1  0  0  0  0  0  0  0  0  0
    4.7102    2.5780    5.3573 F   0  0  0  0  0  0  0  0  0  0  0  0
    2.8818    1.4716    6.1650 F   0  0  0  0  0  0  0  0  0  0  0  0
    4.5963    0.3009    5.2115 F   0  0  0  0  0  0  0  0  0  0  0  0
    1.9853    2.2755    3.6975 C   0  0  0  0  0  0  0  0  0  0  0  0
    1.3752    2.3881    2.4622 C   0  0  0  0  0  0  0  0  0  0  0  0
   -2.0487    1.7370    0.1706 H   0  0  0  0  0  0  0  0  0  0  0  0
   -1.3921    3.8502   -1.1621 H   0  0  0  0  0  0  0  0  0  0  0  0
   -1.9325    4.0611    0.5172 H   0  0  0  0  0  0  0  0  0  0  0  0
    0.2733    5.2156   -0.1131 H   0  0  0  0  0  0  0  0  0  0  0  0
    0.3267    4.1680    1.3287 H   0  0  0  0  0  0  0  0  0  0  0  0
    3.4435    4.9672    0.4665 H   0  0  0  0  0  0  0  0  0  0  0  0
    5.6417    3.7273    0.2093 H   0  0  0  0  0  0  0  0  0  0  0  0
    5.0407    2.9897   -1.3706 H   0  0  0  0  0  0  0  0  0  0  0  0
    4.7724    5.3128   -2.3531 H   0  0  0  0  0  0  0  0  0  0  0  0
    5.3733    6.0504   -0.7731 H   0  0  0  0  0  0  0  0  0  0  0  0
    3.6328    0.7210    0.5909 H   0  0  0  0  0  0  0  0  0  0  0  0
    4.7229    0.5260    2.7903 H   0  0  0  0  0  0  0  0  0  0  0  0
    1.5226    2.7122    4.5702 H   0  0  0  0  0  0  0  0  0  0  0  0
    0.4345    2.9105    2.3702 H   0  0  0  0  0  0  0  0  0  0  0  0
  1  2  2  0
  2 13  1  0
  2  3  1  0
  3  4  1  0
  3 25  1  0
  4  5  1  0
  4 26  1  6
  4 27  1  0
  5  6  1  0
  5 28  1  6
  5 29  1  0
  7  6  1  1
  6 13  1  0
  7  8  2  0
  7  9  2  0
  7 10  1  0
 10 12  1  0
 10 11  1  0
 10 30  1  1
 11 12  1  0
 11 31  1  1
 11 32  1  0
 12 33  1  6
 12 34  1  0
 13 14  1  6
 13 15  1  0
 15 24  2  0
 15 16  1  0
 16 17  2  0
 16 35  1  0
 17 18  1  0
 17 36  1  0
 18 19  1  0
 18 23  2  0
 19 20  1  1
 19 21  1  0
 19 22  1  0
 23 24  1  0
 23 37  1  0
 24 38  1  0
M  END
$$$$
