ZINC000012382583
     RDKit          3D

 42 42  0  0  0  0  0  0  0  0999 V2000
   -0.0187    1.5258    0.0104 C   0  0  1  0  0  0  0  0  0  0  0  0
    0.0021   -0.0041    0.0020 C   0  0  1  0  0  0  0  0  0  0  0  0
    0.7421   -0.5109    1.2415 C   0  0  1  0  0  0  0  0  0  0  0  0
   -1.3723   -0.5112    0.0124 N   0  0  0  0  0  0  0  0  0  0  0  0
   -2.0508   -0.6427   -1.1446 C   0  0  0  0  0  0  0  0  0  0  0  0
   -1.5236   -0.3413   -2.1944 O   0  0  0  0  0  0  0  0  0  0  0  0
   -3.4646   -1.1643   -1.1339 C   0  0  1  0  0  0  0  0  0  0  0  0
   -4.0003   -1.2152   -2.5662 C   0  0  1  0  0  0  0  0  0  0  0  0
   -5.4141   -1.7368   -2.5555 C   0  0  0  0  0  0  0  0  0  0  0  0
   -5.6506   -3.0948   -2.6592 C   0  0  0  0  0  0  0  0  0  0  0  0
   -6.9475   -3.5733   -2.6494 C   0  0  0  0  0  0  0  0  0  0  0  0
   -8.0078   -2.6938   -2.5354 C   0  0  0  0  0  0  0  0  0  0  0  0
   -9.6609   -3.3037   -2.5235 S   0  0  1  0  0  0  0  0  0  0  0  0
  -10.4880   -2.2293   -2.9488 O   0  0  0  0  0  0  0  0  0  0  0  0
   -9.6280   -4.5650   -3.1770 O   0  0  0  0  0  0  0  0  0  0  0  0
  -10.0608   -3.6051   -0.9450 N   0  0  0  0  0  0  0  0  0  0  0  0
  -10.6743   -2.5528   -0.1310 C   0  0  1  0  0  0  0  0  0  0  0  0
   -9.8011   -4.9241   -0.3626 C   0  0  1  0  0  0  0  0  0  0  0  0
   -7.7713   -1.3359   -2.4303 C   0  0  0  0  0  0  0  0  0  0  0  0
   -6.4743   -0.8578   -2.4363 C   0  0  0  0  0  0  0  0  0  0  0  0
    1.0039    1.9031    0.0027 H   0  0  0  0  0  0  0  0  0  0  0  0
   -0.5459    1.8868   -0.8726 H   0  0  0  0  0  0  0  0  0  0  0  0
   -0.5289    1.8773    0.9072 H   0  0  0  0  0  0  0  0  0  0  0  0
    0.5123   -0.3556   -0.8948 H   0  0  0  0  0  0  0  0  0  0  0  0
    0.2319   -0.1594    2.1383 H   0  0  0  0  0  0  0  0  0  0  0  0
    0.7568   -1.6008    1.2356 H   0  0  0  0  0  0  0  0  0  0  0  0
    1.7647   -0.1336    1.2338 H   0  0  0  0  0  0  0  0  0  0  0  0
   -1.7940   -0.7522    0.8520 H   0  0  0  0  0  0  0  0  0  0  0  0
   -3.4790   -2.1662   -0.7048 H   0  0  0  0  0  0  0  0  0  0  0  0
   -4.0912   -0.5035   -0.5349 H   0  0  0  0  0  0  0  0  0  0  0  0
   -3.9859   -0.2133   -2.9953 H   0  0  0  0  0  0  0  0  0  0  0  0
   -3.3738   -1.8760   -3.1652 H   0  0  0  0  0  0  0  0  0  0  0  0
   -4.8222   -3.7820   -2.7482 H   0  0  0  0  0  0  0  0  0  0  0  0
   -7.1323   -4.6343   -2.7311 H   0  0  0  0  0  0  0  0  0  0  0  0
  -11.7588   -2.6063   -0.2254 H   0  0  0  0  0  0  0  0  0  0  0  0
  -10.3932   -2.6908    0.9131 H   0  0  0  0  0  0  0  0  0  0  0  0
  -10.3272   -1.5785   -0.4750 H   0  0  0  0  0  0  0  0  0  0  0  0
   -8.7333   -5.1380   -0.4092 H   0  0  0  0  0  0  0  0  0  0  0  0
  -10.1285   -4.9330    0.6770 H   0  0  0  0  0  0  0  0  0  0  0  0
  -10.3484   -5.6825   -0.9224 H   0  0  0  0  0  0  0  0  0  0  0  0
   -8.5997   -0.6488   -2.3409 H   0  0  0  0  0  0  0  0  0  0  0  0
   -6.2895    0.2031   -2.3542 H   0  0  0  0  0  0  0  0  0  0  0  0
  1  2  1  0
  1 21  1  6
  1 22  1  0
  1 23  1  0
  2  3  1  0
  2  4  1  0
  2 24  1  6
  3 25  1  1
  3 26  1  0
  3 27  1  0
  4  5  1  0
  4 28  1  0
  5  6  2  0
  5  7  1  0
  7  8  1  0
  7 29  1  1
  7 30  1  0
  8  9  1  0
  8 31  1  6
  8 32  1  0
  9 20  2  0
  9 10  1  0
 10 11  2  0
 10 33  1  0
 11 12  1  0
 11 34  1  0
 12 13  1  0
 12 19  2  0
 13 14  2  0
 13 15  2  0
 13 16  1  1
 16 17  1  0
 16 18  1  0
 17 35  1  1
 17 36  1  0
 17 37  1  0
 18 38  1  1
 18 39  1  0
 18 40  1  0
 19 20  1  0
 19 41  1  0
 20 42  1  0
M  END
$$$$
