ZINC000065364733
     RDKit          3D

 46 47  0  0  1  0  0  0  0  0999 V2000
   -0.7249    1.1424    0.0846 C   0  0  1  0  0  0  0  0  0  0  0  0
   -0.3424   -0.3339   -0.0390 C   0  0  1  0  0  0  0  0  0  0  0  0
    0.2172   -0.6395    0.8451 H   0  0  0  0  0  0  0  0  0  0  0  0
   -1.5918   -1.1683   -0.1559 C   0  0  0  0  0  0  0  0  0  0  0  0
   -1.9252   -1.6134   -1.2337 O   0  0  0  0  0  0  0  0  0  0  0  0
   -2.3388   -1.4201    0.9374 N   0  0  0  0  0  0  0  0  0  0  0  0
   -1.8973   -0.9718    2.2651 C   0  0  1  0  0  0  0  0  0  0  0  0
   -3.0213   -0.1534    2.9082 C   0  0  1  0  0  0  0  0  0  0  0  0
   -4.3078   -0.9822    2.9202 C   0  0  1  0  0  0  0  0  0  0  0  0
   -4.7149   -1.3163    1.4832 C   0  0  1  0  0  0  0  0  0  0  0  0
   -3.6130   -2.1426    0.8232 C   0  0  1  0  0  0  0  0  0  0  0  0
    0.4862   -0.5255   -1.2318 N   0  0  0  0  0  0  0  0  0  0  0  0
    0.0275   -0.0917   -2.4778 C   0  0  0  0  0  0  0  0  0  0  0  0
   -0.0577    1.2669   -2.7536 C   0  0  0  0  0  0  0  0  0  0  0  0
   -0.5112    1.6925   -3.9870 C   0  0  0  0  0  0  0  0  0  0  0  0
   -0.8801    0.7677   -4.9464 C   0  0  0  0  0  0  0  0  0  0  0  0
   -0.7969   -0.5859   -4.6748 C   0  0  0  0  0  0  0  0  0  0  0  0
   -1.2001   -1.5901   -5.7236 C   0  0  1  0  0  0  0  0  0  0  0  0
   -1.6199   -0.9175   -6.8763 F   0  0  0  0  0  0  0  0  0  0  0  0
   -0.1068   -2.4066   -6.0322 F   0  0  0  0  0  0  0  0  0  0  0  0
   -2.2480   -2.3784   -5.2360 F   0  0  0  0  0  0  0  0  0  0  0  0
   -0.3390   -1.0182   -3.4459 C   0  0  0  0  0  0  0  0  0  0  0  0
    1.9665   -1.2564   -1.1030 S   0  0  1  0  0  0  0  0  0  0  0  0
    1.6402   -3.0053   -1.4570 C   0  0  1  0  0  0  0  0  0  0  0  0
    2.7375   -0.6723   -2.1441 O   0  0  0  0  0  0  0  0  0  0  0  0
    2.3258   -1.0823    0.2607 O   0  0  0  0  0  0  0  0  0  0  0  0
    0.1790    1.7467    0.1613 H   0  0  0  0  0  0  0  0  0  0  0  0
   -1.2912    1.4460   -0.7958 H   0  0  0  0  0  0  0  0  0  0  0  0
   -1.3349    1.2863    0.9764 H   0  0  0  0  0  0  0  0  0  0  0  0
   -1.6740   -1.8382    2.8877 H   0  0  0  0  0  0  0  0  0  0  0  0
   -1.0061   -0.3525    2.1640 H   0  0  0  0  0  0  0  0  0  0  0  0
   -2.7448    0.1040    3.9306 H   0  0  0  0  0  0  0  0  0  0  0  0
   -3.1816    0.7589    2.3335 H   0  0  0  0  0  0  0  0  0  0  0  0
   -4.1396   -1.9058    3.4740 H   0  0  0  0  0  0  0  0  0  0  0  0
   -5.1031   -0.4114    3.3995 H   0  0  0  0  0  0  0  0  0  0  0  0
   -5.6437   -1.8866    1.4915 H   0  0  0  0  0  0  0  0  0  0  0  0
   -4.8592   -0.3931    0.9220 H   0  0  0  0  0  0  0  0  0  0  0  0
   -3.8534   -2.2984   -0.2285 H   0  0  0  0  0  0  0  0  0  0  0  0
   -3.5268   -3.1054    1.3270 H   0  0  0  0  0  0  0  0  0  0  0  0
    0.2300    1.9897   -2.0045 H   0  0  0  0  0  0  0  0  0  0  0  0
   -0.5780    2.7487   -4.2020 H   0  0  0  0  0  0  0  0  0  0  0  0
   -1.2344    1.1032   -5.9099 H   0  0  0  0  0  0  0  0  0  0  0  0
   -0.2743   -2.0753   -3.2345 H   0  0  0  0  0  0  0  0  0  0  0  0
    1.3666   -3.1188   -2.5060 H   0  0  0  0  0  0  0  0  0  0  0  0
    2.5356   -3.5912   -1.2496 H   0  0  0  0  0  0  0  0  0  0  0  0
    0.8222   -3.3568   -0.8281 H   0  0  0  0  0  0  0  0  0  0  0  0
  1  2  1  0
  1 27  1  1
  1 28  1  0
  1 29  1  0
  2  3  1  1
  2  4  1  0
  2 12  1  0
  4  5  2  0
  4  6  1  0
  6 11  1  0
  6  7  1  0
  7  8  1  0
  7 30  1  1
  7 31  1  0
  8  9  1  0
  8 32  1  1
  8 33  1  0
  9 10  1  0
  9 34  1  1
  9 35  1  0
 10 11  1  0
 10 36  1  1
 10 37  1  0
 11 38  1  6
 11 39  1  0
 12 13  1  0
 23 12  1  1
 13 22  2  0
 13 14  1  0
 14 15  2  0
 14 40  1  0
 15 16  1  0
 15 41  1  0
 16 17  2  0
 16 42  1  0
 17 18  1  0
 17 22  1  0
 18 19  1  6
 18 20  1  0
 18 21  1  0
 22 43  1  0
 23 24  1  0
 23 25  2  0
 23 26  2  0
 24 44  1  6
 24 45  1  0
 24 46  1  0
M  END
$$$$
