ZINC000096170963
     RDKit          3D

 36 37  0  0  1  0  0  0  0  0999 V2000
    0.0330    1.5223   -0.0320 C   0  0  1  0  0  0  0  0  0  0  0  0
    0.0297   -0.0077   -0.0187 C   0  0  2  0  0  0  0  0  0  0  0  0
    0.4702   -0.3821   -0.9427 H   0  0  0  0  0  0  0  0  0  0  0  0
   -1.4096   -0.5170    0.1072 C   0  0  1  0  0  0  0  0  0  0  0  0
   -1.3962   -2.0397    0.2599 C   0  0  1  0  0  0  0  0  0  0  0  0
   -0.6362   -2.4197    1.5328 C   0  0  1  0  0  0  0  0  0  0  0  0
    0.8118   -1.9319    1.4230 C   0  0  1  0  0  0  0  0  0  0  0  0
    0.8079   -0.4919    1.1296 N   0  0  0  0  0  0  0  0  0  0  0  0
    1.6590    0.5649    2.0787 S   0  0  1  0  0  0  0  0  0  0  0  0
    0.9550    1.7985    2.0366 O   0  0  0  0  0  0  0  0  0  0  0  0
    1.9477   -0.1243    3.2874 O   0  0  0  0  0  0  0  0  0  0  0  0
    3.2068    0.8479    1.2856 C   0  0  0  0  0  0  0  0  0  0  0  0
    4.2874    0.0346    1.5693 C   0  0  0  0  0  0  0  0  0  0  0  0
    5.5025    0.2566    0.9462 C   0  0  0  0  0  0  0  0  0  0  0  0
    6.9814   -0.8564    1.3336 Br  0  0  0  0  0  0  0  0  0  0  0  0
    5.6351    1.2925    0.0395 C   0  0  0  0  0  0  0  0  0  0  0  0
    4.5536    2.1056   -0.2437 C   0  0  0  0  0  0  0  0  0  0  0  0
    4.6978    3.2341   -1.2319 C   0  0  1  0  0  0  0  0  0  0  0  0
    6.0068    3.2577   -1.7251 F   0  0  0  0  0  0  0  0  0  0  0  0
    3.8038    3.0436   -2.2911 F   0  0  0  0  0  0  0  0  0  0  0  0
    4.4167    4.4487   -0.5972 F   0  0  0  0  0  0  0  0  0  0  0  0
    3.3384    1.8802    0.3752 C   0  0  0  0  0  0  0  0  0  0  0  0
    1.0597    1.8839    0.0248 H   0  0  0  0  0  0  0  0  0  0  0  0
   -0.4272    1.8786   -0.9536 H   0  0  0  0  0  0  0  0  0  0  0  0
   -0.5311    1.8943    0.8232 H   0  0  0  0  0  0  0  0  0  0  0  0
   -1.8793   -0.0677    0.9823 H   0  0  0  0  0  0  0  0  0  0  0  0
   -1.9710   -0.2460   -0.7870 H   0  0  0  0  0  0  0  0  0  0  0  0
   -2.4203   -2.4072    0.3250 H   0  0  0  0  0  0  0  0  0  0  0  0
   -0.9043   -2.4869   -0.6039 H   0  0  0  0  0  0  0  0  0  0  0  0
   -1.1131   -1.9525    2.3944 H   0  0  0  0  0  0  0  0  0  0  0  0
   -0.6471   -3.5030    1.6533 H   0  0  0  0  0  0  0  0  0  0  0  0
    1.3303   -2.1117    2.3648 H   0  0  0  0  0  0  0  0  0  0  0  0
    1.3170   -2.4654    0.6178 H   0  0  0  0  0  0  0  0  0  0  0  0
    4.1835   -0.7740    2.2777 H   0  0  0  0  0  0  0  0  0  0  0  0
    6.5835    1.4665   -0.4469 H   0  0  0  0  0  0  0  0  0  0  0  0
    2.4936    2.5154    0.1534 H   0  0  0  0  0  0  0  0  0  0  0  0
  1  2  1  0
  1 23  1  1
  1 24  1  0
  1 25  1  0
  2  3  1  6
  2  8  1  0
  2  4  1  0
  4  5  1  0
  4 26  1  1
  4 27  1  0
  5  6  1  0
  5 28  1  1
  5 29  1  0
  6  7  1  0
  6 30  1  1
  6 31  1  0
  7  8  1  0
  7 32  1  1
  7 33  1  0
  9  8  1  6
  9 10  2  0
  9 11  2  0
  9 12  1  0
 12 22  2  0
 12 13  1  0
 13 14  2  0
 13 34  1  0
 14 15  1  0
 14 16  1  0
 16 17  2  0
 16 35  1  0
 17 18  1  0
 17 22  1  0
 18 19  1  6
 18 20  1  0
 18 21  1  0
 22 36  1  0
M  END
$$$$
