ZINC000630095943
     RDKit          3D

 38 40  0  0  1  0  0  0  0  0999 V2000
   -0.4590    0.9126    0.8162 O   0  0  0  0  0  0  0  0  0  0  0  0
   -0.9012    2.2330    0.5329 S   0  0  1  0  0  0  0  0  0  0  0  0
   -0.1021    3.3858    0.7605 O   0  0  0  0  0  0  0  0  0  0  0  0
   -1.3341    2.2570   -1.1749 C   0  0  0  0  0  0  0  0  0  0  0  0
   -0.8960    3.2094   -2.0228 C   0  0  0  0  0  0  0  0  0  0  0  0
   -1.5712    2.8170   -3.5553 S   0  0  0  0  0  0  0  0  0  0  0  0
   -2.3957    1.4308   -3.0320 N   0  0  0  0  0  0  0  0  0  0  0  0
   -2.1482    1.2937   -1.7543 C   0  0  0  0  0  0  0  0  0  0  0  0
   -2.7158    0.1730   -0.9646 C   0  0  0  0  0  0  0  0  0  0  0  0
   -1.8719   -0.6888   -0.2673 C   0  0  0  0  0  0  0  0  0  0  0  0
   -2.4053   -1.7297    0.4657 C   0  0  0  0  0  0  0  0  0  0  0  0
   -3.7747   -1.9183    0.5083 C   0  0  0  0  0  0  0  0  0  0  0  0
   -4.6174   -1.0660   -0.1826 C   0  0  0  0  0  0  0  0  0  0  0  0
   -6.1085   -1.2782   -0.1318 C   0  0  1  0  0  0  0  0  0  0  0  0
   -6.3945   -2.3886    0.6697 F   0  0  0  0  0  0  0  0  0  0  0  0
   -6.7230   -0.1430    0.4077 F   0  0  0  0  0  0  0  0  0  0  0  0
   -6.5923   -1.4999   -1.4256 F   0  0  0  0  0  0  0  0  0  0  0  0
   -4.0953   -0.0181   -0.9132 C   0  0  0  0  0  0  0  0  0  0  0  0
   -2.2973    2.4539    1.3957 N   0  0  0  0  0  0  0  0  0  0  0  0
   -2.8539    3.7542    1.8111 C   0  0  1  0  0  0  0  0  0  0  0  0
   -4.3694    3.4947    1.9998 C   0  0  1  0  0  0  0  0  0  0  0  0
   -4.8045    4.2104    2.6974 H   0  0  0  0  0  0  0  0  0  0  0  0
   -5.0542    3.5248    0.7459 O   0  0  0  0  0  0  0  0  0  0  0  0
   -4.3682    2.0638    2.5996 C   0  0  1  0  0  0  0  0  0  0  0  0
   -4.1922    2.0965    3.6748 H   0  0  0  0  0  0  0  0  0  0  0  0
   -5.5965    1.3933    2.3103 O   0  0  0  0  0  0  0  0  0  0  0  0
   -3.1902    1.3860    1.8687 C   0  0  1  0  0  0  0  0  0  0  0  0
   -0.2543    4.0458   -1.7882 H   0  0  0  0  0  0  0  0  0  0  0  0
   -0.8023   -0.5428   -0.3004 H   0  0  0  0  0  0  0  0  0  0  0  0
   -1.7520   -2.3983    1.0067 H   0  0  0  0  0  0  0  0  0  0  0  0
   -4.1878   -2.7343    1.0828 H   0  0  0  0  0  0  0  0  0  0  0  0
   -4.7541    0.6470   -1.4519 H   0  0  0  0  0  0  0  0  0  0  0  0
   -2.4045    4.0766    2.7503 H   0  0  0  0  0  0  0  0  0  0  0  0
   -2.6908    4.5021    1.0351 H   0  0  0  0  0  0  0  0  0  0  0  0
   -4.9980    4.3742    0.2873 H   0  0  0  0  0  0  0  0  0  0  0  0
   -5.6466    0.4945    2.6635 H   0  0  0  0  0  0  0  0  0  0  0  0
   -3.5623    0.8059    1.0243 H   0  0  0  0  0  0  0  0  0  0  0  0
   -2.6505    0.7366    2.5581 H   0  0  0  0  0  0  0  0  0  0  0  0
  1  2  2  0
  2  3  2  0
  2  4  1  0
  2 19  1  1
  4  8  1  0
  4  5  2  0
  5  6  1  0
  5 28  1  0
  6  7  1  0
  7  8  2  0
  8  9  1  0
  9 18  2  0
  9 10  1  0
 10 11  2  0
 10 29  1  0
 11 12  1  0
 11 30  1  0
 12 13  2  0
 12 31  1  0
 13 14  1  0
 13 18  1  0
 14 15  1  1
 14 16  1  0
 14 17  1  0
 18 32  1  0
 19 27  1  0
 19 20  1  0
 20 21  1  0
 20 33  1  1
 20 34  1  0
 21 22  1  1
 21 23  1  0
 21 24  1  0
 23 35  1  0
 24 25  1  1
 24 26  1  0
 24 27  1  0
 26 36  1  0
 27 37  1  6
 27 38  1  0
M  END
$$$$
