ZINC000016576323
     RDKit          3D

 62 64  0  0  1  0  0  0  0  0999 V2000
   -0.0187    1.5258    0.0104 C   0  0  1  0  0  0  0  0  0  0  0  0
    0.0021   -0.0041    0.0020 C   0  0  1  0  0  0  0  0  0  0  0  0
    0.5293   -0.3651    0.8851 H   0  0  0  0  0  0  0  0  0  0  0  0
   -1.4333   -0.5336    0.0129 C   0  0  1  0  0  0  0  0  0  0  0  0
   -1.4133   -2.0590    0.1302 C   0  0  1  0  0  0  0  0  0  0  0  0
   -2.8271   -2.5806    0.1409 C   0  0  0  0  0  0  0  0  0  0  0  0
   -3.5022   -2.7230    1.3388 C   0  0  0  0  0  0  0  0  0  0  0  0
   -4.7990   -3.2015    1.3486 C   0  0  0  0  0  0  0  0  0  0  0  0
   -5.4209   -3.5371    0.1605 C   0  0  0  0  0  0  0  0  0  0  0  0
   -4.7461   -3.3939   -1.0374 C   0  0  0  0  0  0  0  0  0  0  0  0
   -3.4508   -2.9114   -1.0476 C   0  0  0  0  0  0  0  0  0  0  0  0
    0.6878   -0.4765   -1.2033 N   0  0  0  0  0  0  0  0  0  0  0  0
    2.0310   -0.5870   -1.2149 C   0  0  0  0  0  0  0  0  0  0  0  0
    2.6720   -0.2952   -0.2276 O   0  0  0  0  0  0  0  0  0  0  0  0
    2.7363   -1.0730   -2.4548 C   0  0  1  0  0  0  0  0  0  0  0  0
    4.1811   -1.1040   -2.2143 N   0  0  0  0  0  0  0  0  0  0  0  0
    4.7928   -2.2733   -1.5780 C   0  0  1  0  0  0  0  0  0  0  0  0
    5.0951   -3.3321   -2.6402 C   0  0  1  0  0  0  0  0  0  0  0  0
    5.7244   -4.5349   -1.9857 C   0  0  0  0  0  0  0  0  0  0  0  0
    7.0979   -4.6069   -1.8471 C   0  0  0  0  0  0  0  0  0  0  0  0
    7.6751   -5.7102   -1.2467 C   0  0  0  0  0  0  0  0  0  0  0  0
    6.8788   -6.7413   -0.7845 C   0  0  0  0  0  0  0  0  0  0  0  0
    5.5052   -6.6689   -0.9223 C   0  0  0  0  0  0  0  0  0  0  0  0
    4.9277   -5.5636   -1.5188 C   0  0  0  0  0  0  0  0  0  0  0  0
    5.1228    0.1827   -2.6616 S   0  0  1  0  0  0  0  0  0  0  0  0
    6.4037   -0.3471   -2.9745 O   0  0  0  0  0  0  0  0  0  0  0  0
    4.3513    0.9445   -3.5800 O   0  0  0  0  0  0  0  0  0  0  0  0
    5.3375    1.1931   -1.2341 C   0  0  0  0  0  0  0  0  0  0  0  0
    4.4356    2.2044   -0.9611 C   0  0  0  0  0  0  0  0  0  0  0  0
    4.6040    2.9971    0.1588 C   0  0  0  0  0  0  0  0  0  0  0  0
    5.6742    2.7781    1.0059 C   0  0  0  0  0  0  0  0  0  0  0  0
    6.5757    1.7662    0.7334 C   0  0  0  0  0  0  0  0  0  0  0  0
    6.4048    0.9707   -0.3841 C   0  0  0  0  0  0  0  0  0  0  0  0
    1.0039    1.9031    0.0027 H   0  0  0  0  0  0  0  0  0  0  0  0
   -0.5459    1.8868   -0.8726 H   0  0  0  0  0  0  0  0  0  0  0  0
   -0.5289    1.8773    0.9072 H   0  0  0  0  0  0  0  0  0  0  0  0
   -1.9701   -0.1109    0.8621 H   0  0  0  0  0  0  0  0  0  0  0  0
   -1.9334   -0.2470   -0.9122 H   0  0  0  0  0  0  0  0  0  0  0  0
   -0.8764   -2.4817   -0.7190 H   0  0  0  0  0  0  0  0  0  0  0  0
   -0.9132   -2.3457    1.0553 H   0  0  0  0  0  0  0  0  0  0  0  0
   -3.0163   -2.4608    2.2670 H   0  0  0  0  0  0  0  0  0  0  0  0
   -5.3263   -3.3135    2.2845 H   0  0  0  0  0  0  0  0  0  0  0  0
   -6.4339   -3.9116    0.1683 H   0  0  0  0  0  0  0  0  0  0  0  0
   -5.2319   -3.6564   -1.9656 H   0  0  0  0  0  0  0  0  0  0  0  0
   -2.9236   -2.7994   -1.9835 H   0  0  0  0  0  0  0  0  0  0  0  0
    0.1751   -0.7099   -1.9930 H   0  0  0  0  0  0  0  0  0  0  0  0
    2.3875   -2.0757   -2.7018 H   0  0  0  0  0  0  0  0  0  0  0  0
    2.5204   -0.3987   -3.2836 H   0  0  0  0  0  0  0  0  0  0  0  0
    5.7195   -1.9764   -1.0868 H   0  0  0  0  0  0  0  0  0  0  0  0
    4.1059   -2.6857   -0.8390 H   0  0  0  0  0  0  0  0  0  0  0  0
    4.1684   -3.6290   -3.1314 H   0  0  0  0  0  0  0  0  0  0  0  0
    5.7821   -2.9197   -3.3792 H   0  0  0  0  0  0  0  0  0  0  0  0
    7.7200   -3.8014   -2.2082 H   0  0  0  0  0  0  0  0  0  0  0  0
    8.7482   -5.7668   -1.1391 H   0  0  0  0  0  0  0  0  0  0  0  0
    7.3298   -7.6036   -0.3161 H   0  0  0  0  0  0  0  0  0  0  0  0
    4.8831   -7.4746   -0.5615 H   0  0  0  0  0  0  0  0  0  0  0  0
    3.8546   -5.5070   -1.6264 H   0  0  0  0  0  0  0  0  0  0  0  0
    3.5995    2.3755   -1.6230 H   0  0  0  0  0  0  0  0  0  0  0  0
    3.8997    3.7877    0.3717 H   0  0  0  0  0  0  0  0  0  0  0  0
    5.8062    3.3979    1.8805 H   0  0  0  0  0  0  0  0  0  0  0  0
    7.4120    1.5953    1.3951 H   0  0  0  0  0  0  0  0  0  0  0  0
    7.1091    0.1801   -0.5970 H   0  0  0  0  0  0  0  0  0  0  0  0
  1  2  1  0
  1 34  1  6
  1 35  1  0
  1 36  1  0
  2  3  1  1
  2  4  1  0
  2 12  1  0
  4  5  1  0
  4 37  1  1
  4 38  1  0
  5  6  1  0
  5 39  1  6
  5 40  1  0
  6 11  2  0
  6  7  1  0
  7  8  2  0
  7 41  1  0
  8  9  1  0
  8 42  1  0
  9 10  2  0
  9 43  1  0
 10 11  1  0
 10 44  1  0
 11 45  1  0
 12 13  1  0
 12 46  1  0
 13 14  2  0
 13 15  1  0
 15 16  1  0
 15 47  1  6
 15 48  1  0
 16 17  1  0
 25 16  1  1
 17 18  1  0
 17 49  1  1
 17 50  1  0
 18 19  1  0
 18 51  1  6
 18 52  1  0
 19 24  2  0
 19 20  1  0
 20 21  2  0
 20 53  1  0
 21 22  1  0
 21 54  1  0
 22 23  2  0
 22 55  1  0
 23 24  1  0
 23 56  1  0
 24 57  1  0
 25 26  2  0
 25 27  2  0
 25 28  1  0
 28 33  2  0
 28 29  1  0
 29 30  2  0
 29 58  1  0
 30 31  1  0
 30 59  1  0
 31 32  2  0
 31 60  1  0
 32 33  1  0
 32 61  1  0
 33 62  1  0
M  END
$$$$
