ZINC000017097389
     RDKit          3D

 47 48  0  0  0  0  0  0  0  0999 V2000
   -0.0173    1.4248    0.0099 C   0  0  1  0  0  0  0  0  0  0  0  0
    0.0021   -0.0041    0.0020 O   0  0  0  0  0  0  0  0  0  0  0  0
    0.6518   -0.5703   -1.1379 C   0  0  1  0  0  0  0  0  0  0  0  0
    0.6131   -2.0967   -1.0411 C   0  0  1  0  0  0  0  0  0  0  0  0
   -0.7759   -2.5559   -1.1188 N   0  0  0  0  0  0  0  0  0  0  0  0
   -1.0549   -3.8729   -1.0544 C   0  0  0  0  0  0  0  0  0  0  0  0
   -0.1561   -4.6779   -0.9320 O   0  0  0  0  0  0  0  0  0  0  0  0
   -2.4837   -4.3452   -1.1344 C   0  0  1  0  0  0  0  0  0  0  0  0
   -2.5208   -5.8068   -1.0417 N   0  0  0  0  0  0  0  0  0  0  0  0
   -2.5267   -6.4576    0.2708 C   0  0  1  0  0  0  0  0  0  0  0  0
   -3.9403   -6.5333    0.7876 C   0  0  0  0  0  0  0  0  0  0  0  0
   -4.4539   -5.4999    1.5488 C   0  0  0  0  0  0  0  0  0  0  0  0
   -5.7503   -5.5687    2.0231 C   0  0  0  0  0  0  0  0  0  0  0  0
   -6.5340   -6.6720    1.7360 C   0  0  0  0  0  0  0  0  0  0  0  0
   -8.1626   -6.7589    2.3309 Cl  0  0  0  0  0  0  0  0  0  0  0  0
   -6.0195   -7.7060    0.9741 C   0  0  0  0  0  0  0  0  0  0  0  0
   -4.7248   -7.6335    0.4956 C   0  0  0  0  0  0  0  0  0  0  0  0
   -2.5560   -6.7233   -2.4205 S   0  0  1  0  0  0  0  0  0  0  0  0
   -3.2659   -7.9105   -2.0952 O   0  0  0  0  0  0  0  0  0  0  0  0
   -2.9427   -5.8502   -3.4729 O   0  0  0  0  0  0  0  0  0  0  0  0
   -0.8986   -7.2129   -2.7639 C   0  0  0  0  0  0  0  0  0  0  0  0
   -0.0921   -6.4151   -3.5538 C   0  0  0  0  0  0  0  0  0  0  0  0
    1.2081   -6.7986   -3.8235 C   0  0  0  0  0  0  0  0  0  0  0  0
    1.7024   -7.9812   -3.3027 C   0  0  0  0  0  0  0  0  0  0  0  0
    3.3356   -8.4632   -3.6405 Cl  0  0  0  0  0  0  0  0  0  0  0  0
    0.8948   -8.7792   -2.5121 C   0  0  0  0  0  0  0  0  0  0  0  0
   -0.4035   -8.3918   -2.2385 C   0  0  0  0  0  0  0  0  0  0  0  0
    1.0053    1.8021    0.0021 H   0  0  0  0  0  0  0  0  0  0  0  0
   -0.5445    1.7859   -0.8732 H   0  0  0  0  0  0  0  0  0  0  0  0
   -0.5275    1.7763    0.9067 H   0  0  0  0  0  0  0  0  0  0  0  0
    0.1385   -0.2506   -2.0447 H   0  0  0  0  0  0  0  0  0  0  0  0
    1.6883   -0.2344   -1.1694 H   0  0  0  0  0  0  0  0  0  0  0  0
    1.1847   -2.5275   -1.8631 H   0  0  0  0  0  0  0  0  0  0  0  0
    1.0473   -2.4117   -0.0922 H   0  0  0  0  0  0  0  0  0  0  0  0
   -1.4948   -1.9121   -1.2167 H   0  0  0  0  0  0  0  0  0  0  0  0
   -3.0554   -3.9144   -0.3124 H   0  0  0  0  0  0  0  0  0  0  0  0
   -2.9180   -4.0302   -2.0832 H   0  0  0  0  0  0  0  0  0  0  0  0
   -2.1191   -7.4644    0.1790 H   0  0  0  0  0  0  0  0  0  0  0  0
   -1.9163   -5.8804    0.9653 H   0  0  0  0  0  0  0  0  0  0  0  0
   -3.8419   -4.6388    1.7732 H   0  0  0  0  0  0  0  0  0  0  0  0
   -6.1513   -4.7614    2.6181 H   0  0  0  0  0  0  0  0  0  0  0  0
   -6.6307   -8.5677    0.7499 H   0  0  0  0  0  0  0  0  0  0  0  0
   -4.3231   -8.4403   -0.0994 H   0  0  0  0  0  0  0  0  0  0  0  0
   -0.4781   -5.4921   -3.9606 H   0  0  0  0  0  0  0  0  0  0  0  0
    1.8380   -6.1754   -4.4410 H   0  0  0  0  0  0  0  0  0  0  0  0
    1.2800   -9.7026   -2.1055 H   0  0  0  0  0  0  0  0  0  0  0  0
   -1.0339   -9.0145   -1.6211 H   0  0  0  0  0  0  0  0  0  0  0  0
  1  2  1  0
  1 28  1  6
  1 29  1  0
  1 30  1  0
  2  3  1  0
  3  4  1  0
  3 31  1  6
  3 32  1  0
  4  5  1  0
  4 33  1  6
  4 34  1  0
  5  6  1  0
  5 35  1  0
  6  7  2  0
  6  8  1  0
  8  9  1  0
  8 36  1  1
  8 37  1  0
  9 10  1  0
 18  9  1  1
 10 11  1  0
 10 38  1  6
 10 39  1  0
 11 17  2  0
 11 12  1  0
 12 13  2  0
 12 40  1  0
 13 14  1  0
 13 41  1  0
 14 15  1  0
 14 16  2  0
 16 17  1  0
 16 42  1  0
 17 43  1  0
 18 19  2  0
 18 20  2  0
 18 21  1  0
 21 27  2  0
 21 22  1  0
 22 23  2  0
 22 44  1  0
 23 24  1  0
 23 45  1  0
 24 25  1  0
 24 26  2  0
 26 27  1  0
 26 46  1  0
 27 47  1  0
M  END
$$$$
