ZINC000021838856
     RDKit          3D

 53 55  0  0  0  0  0  0  0  0999 V2000
    1.3771   -2.2658    1.4798 C   0  0  1  0  0  0  0  0  0  0  0  0
    2.4644   -3.7133    1.3651 S   0  0  1  0  0  0  0  0  0  0  0  0
    3.6233   -3.5312    2.1670 O   0  0  0  0  0  0  0  0  0  0  0  0
    1.7063   -4.9132    1.4350 O   0  0  0  0  0  0  0  0  0  0  0  0
    3.0340   -3.6801   -0.1895 N   0  0  0  0  0  0  0  0  0  0  0  0
    2.3078   -4.3667   -1.2670 C   0  0  1  0  0  0  0  0  0  0  0  0
    2.0100   -3.3542   -2.3798 C   0  0  1  0  0  0  0  0  0  0  0  0
    3.2505   -2.6372   -2.7067 N   0  0  0  0  0  0  0  0  0  0  0  0
    3.7137   -2.6094   -3.9721 C   0  0  0  0  0  0  0  0  0  0  0  0
    3.1055   -3.1794   -4.8531 O   0  0  0  0  0  0  0  0  0  0  0  0
    4.9872   -1.8701   -4.2923 C   0  0  1  0  0  0  0  0  0  0  0  0
    5.2715   -1.9878   -5.7113 O   0  0  0  0  0  0  0  0  0  0  0  0
    6.3844   -1.3783   -6.1649 C   0  0  0  0  0  0  0  0  0  0  0  0
    7.0976   -0.7652   -5.3957 O   0  0  0  0  0  0  0  0  0  0  0  0
    6.7366   -1.4554   -7.5951 C   0  0  0  0  0  0  0  0  0  0  0  0
    5.9956   -2.2633   -8.4583 C   0  0  0  0  0  0  0  0  0  0  0  0
    6.3297   -2.3315   -9.7950 C   0  0  0  0  0  0  0  0  0  0  0  0
    7.3983   -1.6019  -10.2887 C   0  0  0  0  0  0  0  0  0  0  0  0
    8.1431   -0.7971   -9.4496 C   0  0  0  0  0  0  0  0  0  0  0  0
    7.8186   -0.7102   -8.0991 C   0  0  0  0  0  0  0  0  0  0  0  0
    8.6148    0.1528   -7.1951 C   0  0  0  0  0  0  0  0  0  0  0  0
    8.0027    1.2017   -6.5099 C   0  0  0  0  0  0  0  0  0  0  0  0
    8.7493    2.0016   -5.6691 C   0  0  0  0  0  0  0  0  0  0  0  0
   10.1023    1.7646   -5.5053 C   0  0  0  0  0  0  0  0  0  0  0  0
   10.9119    2.6415   -4.5852 C   0  0  1  0  0  0  0  0  0  0  0  0
   10.8985    2.1013   -3.2948 F   0  0  0  0  0  0  0  0  0  0  0  0
   12.2303    2.7113   -5.0479 F   0  0  0  0  0  0  0  0  0  0  0  0
   10.3584    3.9261   -4.5588 F   0  0  0  0  0  0  0  0  0  0  0  0
   10.7151    0.7255   -6.1825 C   0  0  0  0  0  0  0  0  0  0  0  0
    9.9779   -0.0845   -7.0219 C   0  0  0  0  0  0  0  0  0  0  0  0
    3.9767   -1.9506   -1.6292 C   0  0  1  0  0  0  0  0  0  0  0  0
    4.2716   -2.9584   -0.5173 C   0  0  1  0  0  0  0  0  0  0  0  0
    1.9521   -1.3624    1.2763 H   0  0  0  0  0  0  0  0  0  0  0  0
    0.5728   -2.3568    0.7496 H   0  0  0  0  0  0  0  0  0  0  0  0
    0.9529   -2.2085    2.4822 H   0  0  0  0  0  0  0  0  0  0  0  0
    2.9209   -5.1761   -1.6634 H   0  0  0  0  0  0  0  0  0  0  0  0
    1.3723   -4.7694   -0.8788 H   0  0  0  0  0  0  0  0  0  0  0  0
    1.6467   -3.8784   -3.2637 H   0  0  0  0  0  0  0  0  0  0  0  0
    1.2569   -2.6447   -2.0369 H   0  0  0  0  0  0  0  0  0  0  0  0
    4.8723   -0.8182   -4.0308 H   0  0  0  0  0  0  0  0  0  0  0  0
    5.8099   -2.2989   -3.7201 H   0  0  0  0  0  0  0  0  0  0  0  0
    5.1612   -2.8352   -8.0801 H   0  0  0  0  0  0  0  0  0  0  0  0
    5.7545   -2.9580  -10.4606 H   0  0  0  0  0  0  0  0  0  0  0  0
    7.6511   -1.6632  -11.3369 H   0  0  0  0  0  0  0  0  0  0  0  0
    8.9752   -0.2316   -9.8423 H   0  0  0  0  0  0  0  0  0  0  0  0
    6.9465    1.3879   -6.6373 H   0  0  0  0  0  0  0  0  0  0  0  0
    8.2764    2.8145   -5.1381 H   0  0  0  0  0  0  0  0  0  0  0  0
   11.7719    0.5454   -6.0509 H   0  0  0  0  0  0  0  0  0  0  0  0
   10.4574   -0.8954   -7.5500 H   0  0  0  0  0  0  0  0  0  0  0  0
    4.9123   -1.5479   -2.0173 H   0  0  0  0  0  0  0  0  0  0  0  0
    3.3637   -1.1412   -1.2328 H   0  0  0  0  0  0  0  0  0  0  0  0
    4.6348   -2.4329    0.3658 H   0  0  0  0  0  0  0  0  0  0  0  0
    5.0241   -3.6695   -0.8583 H   0  0  0  0  0  0  0  0  0  0  0  0
  1  2  1  0
  1 33  1  6
  1 34  1  0
  1 35  1  0
  2  3  2  0
  2  4  2  0
  2  5  1  6
  5 32  1  0
  5  6  1  0
  6  7  1  0
  6 36  1  6
  6 37  1  0
  7  8  1  0
  7 38  1  6
  7 39  1  0
  8  9  1  0
  8 31  1  0
  9 10  2  0
  9 11  1  0
 11 12  1  0
 11 40  1  1
 11 41  1  0
 12 13  1  0
 13 14  2  0
 13 15  1  0
 15 20  2  0
 15 16  1  0
 16 17  2  0
 16 42  1  0
 17 18  1  0
 17 43  1  0
 18 19  2  0
 18 44  1  0
 19 20  1  0
 19 45  1  0
 20 21  1  0
 21 30  2  0
 21 22  1  0
 22 23  2  0
 22 46  1  0
 23 24  1  0
 23 47  1  0
 24 25  1  0
 24 29  2  0
 25 26  1  1
 25 27  1  0
 25 28  1  0
 29 30  1  0
 29 48  1  0
 30 49  1  0
 31 32  1  0
 31 50  1  6
 31 51  1  0
 32 52  1  1
 32 53  1  0
M  END
$$$$
