ZINC000253430669
     RDKit          3D

 35 36  0  0  1  0  0  0  0  0999 V2000
    0.0021   -0.0041    0.0020 O   0  0  0  0  0  0  0  0  0  0  0  0
   -0.0172    1.4168    0.0098 S   0  0  1  0  0  0  0  0  0  0  0  0
    1.1617    2.2101    0.0028 O   0  0  0  0  0  0  0  0  0  0  0  0
   -0.9567    1.9094   -1.3970 C   0  0  0  0  0  0  0  0  0  0  0  0
   -0.4624    2.8715   -2.2559 C   0  0  0  0  0  0  0  0  0  0  0  0
   -1.1995    3.2589   -3.3600 C   0  0  0  0  0  0  0  0  0  0  0  0
   -0.6578    4.3089   -4.2954 C   0  0  1  0  0  0  0  0  0  0  0  0
    0.0919    3.6933   -5.3035 F   0  0  0  0  0  0  0  0  0  0  0  0
   -1.7204    5.0149   -4.8696 F   0  0  0  0  0  0  0  0  0  0  0  0
    0.1580    5.1932   -3.5816 F   0  0  0  0  0  0  0  0  0  0  0  0
   -2.4324    2.6843   -3.6072 C   0  0  0  0  0  0  0  0  0  0  0  0
   -2.9310    1.7211   -2.7513 C   0  0  0  0  0  0  0  0  0  0  0  0
   -2.1913    1.3270   -1.6461 C   0  0  0  0  0  0  0  0  0  0  0  0
   -2.6796    0.3798   -0.8028 O   0  0  0  0  0  0  0  0  0  0  0  0
   -0.8748    1.8654    1.3536 N   0  0  0  0  0  0  0  0  0  0  0  0
   -0.7685    3.1619    2.0474 C   0  0  1  0  0  0  0  0  0  0  0  0
   -2.1234    3.3324    2.7789 C   0  0  1  0  0  0  0  0  0  0  0  0
   -2.4234    1.8761    3.2223 C   0  0  1  0  0  0  0  0  0  0  0  0
   -1.8728    1.0392    2.0485 C   0  0  2  0  0  0  0  0  0  0  0  0
   -2.6829    0.7771    1.3680 H   0  0  0  0  0  0  0  0  0  0  0  0
   -1.2097   -0.2323    2.5819 C   0  0  1  0  0  0  0  0  0  0  0  0
   -0.2352    0.1162    3.5673 O   0  0  0  0  0  0  0  0  0  0  0  0
    0.5004    3.3219   -2.0649 H   0  0  0  0  0  0  0  0  0  0  0  0
   -3.0063    2.9888   -4.4699 H   0  0  0  0  0  0  0  0  0  0  0  0
   -3.8944    1.2728   -2.9447 H   0  0  0  0  0  0  0  0  0  0  0  0
   -2.4341   -0.5243   -1.0423 H   0  0  0  0  0  0  0  0  0  0  0  0
    0.0507    3.1415    2.7661 H   0  0  0  0  0  0  0  0  0  0  0  0
   -0.6224    3.9668    1.3271 H   0  0  0  0  0  0  0  0  0  0  0  0
   -2.0213    3.9904    3.6418 H   0  0  0  0  0  0  0  0  0  0  0  0
   -2.8914    3.6996    2.0981 H   0  0  0  0  0  0  0  0  0  0  0  0
   -1.8997    1.6393    4.1485 H   0  0  0  0  0  0  0  0  0  0  0  0
   -3.4964    1.7203    3.3340 H   0  0  0  0  0  0  0  0  0  0  0  0
   -1.9664   -0.8757    3.0308 H   0  0  0  0  0  0  0  0  0  0  0  0
   -0.7240   -0.7604    1.7614 H   0  0  0  0  0  0  0  0  0  0  0  0
    0.2261   -0.6428    3.9498 H   0  0  0  0  0  0  0  0  0  0  0  0
  1  2  2  0
  2  3  2  0
  2  4  1  0
  2 15  1  1
  4 13  2  0
  4  5  1  0
  5  6  2  0
  5 23  1  0
  6  7  1  0
  6 11  1  0
  7  8  1  6
  7  9  1  0
  7 10  1  0
 11 12  2  0
 11 24  1  0
 12 13  1  0
 12 25  1  0
 13 14  1  0
 14 26  1  0
 15 19  1  0
 15 16  1  0
 16 17  1  0
 16 27  1  1
 16 28  1  0
 17 18  1  0
 17 29  1  1
 17 30  1  0
 18 19  1  0
 18 31  1  1
 18 32  1  0
 19 20  1  6
 19 21  1  0
 21 22  1  0
 21 33  1  1
 21 34  1  0
 22 35  1  0
M  END
$$$$
