ZINC000022228430
     RDKit          3D

 57 58  0  0  1  0  0  0  0  0999 V2000
   -0.0187    1.5258    0.0104 C   0  0  1  0  0  0  0  0  0  0  0  0
    0.0021   -0.0041    0.0020 C   0  0  1  0  0  0  0  0  0  0  0  0
    0.6878   -0.4765   -1.2033 N   0  0  0  0  0  0  0  0  0  0  0  0
    2.1478   -0.5966   -1.2159 C   0  0  1  0  0  0  0  0  0  0  0  0
    2.5532   -1.9514   -0.6319 C   0  0  1  0  0  0  0  0  0  0  0  0
   -0.1875   -0.8749   -2.5515 S   0  0  1  0  0  0  0  0  0  0  0  0
    0.6166   -1.7761   -3.3001 O   0  0  0  0  0  0  0  0  0  0  0  0
   -1.4970   -1.1925   -2.1004 O   0  0  0  0  0  0  0  0  0  0  0  0
   -0.3375    0.5853   -3.5262 C   0  0  0  0  0  0  0  0  0  0  0  0
   -1.4057    1.4405   -3.3300 C   0  0  0  0  0  0  0  0  0  0  0  0
   -1.5234    2.5861   -4.0947 C   0  0  0  0  0  0  0  0  0  0  0  0
   -0.5727    2.8767   -5.0552 C   0  0  0  0  0  0  0  0  0  0  0  0
   -0.7013    4.1253   -5.8892 C   0  0  1  0  0  0  0  0  0  0  0  0
    0.0204    5.2805   -5.1924 C   0  0  1  0  0  0  0  0  0  0  0  0
   -0.1047    6.4943   -6.0031 N   0  0  0  0  0  0  0  0  0  0  0  0
    0.4570    7.6455   -5.5839 C   0  0  0  0  0  0  0  0  0  0  0  0
    1.0662    7.6766   -4.5348 O   0  0  0  0  0  0  0  0  0  0  0  0
    0.3295    8.8838   -6.4109 C   0  0  0  0  0  0  0  0  0  0  0  0
   -0.2798    8.8527   -7.4599 O   0  0  0  0  0  0  0  0  0  0  0  0
    0.8911   10.0350   -5.9917 N   0  0  0  0  0  0  0  0  0  0  0  0
    0.7661   11.2488   -6.8024 C   0  0  1  0  0  0  0  0  0  0  0  0
    1.4877   12.4041   -6.1056 C   0  0  2  0  0  0  0  0  0  0  0  0
    1.1137   12.5133   -5.0876 H   0  0  0  0  0  0  0  0  0  0  0  0
    1.2596   13.7137   -6.8907 C   0  0  1  0  0  0  0  0  0  0  0  0
    2.6482   14.4024   -6.7934 C   0  0  1  0  0  0  0  0  0  0  0  0
    3.5895   13.1719   -6.8223 C   0  0  1  0  0  0  0  0  0  0  0  0
    2.8975   12.1520   -6.0809 O   0  0  0  0  0  0  0  0  0  0  0  0
    0.4962    2.0221   -5.2504 C   0  0  0  0  0  0  0  0  0  0  0  0
    0.6160    0.8786   -4.4831 C   0  0  0  0  0  0  0  0  0  0  0  0
    1.0039    1.9031    0.0027 H   0  0  0  0  0  0  0  0  0  0  0  0
   -0.5459    1.8868   -0.8726 H   0  0  0  0  0  0  0  0  0  0  0  0
   -0.5289    1.8773    0.9072 H   0  0  0  0  0  0  0  0  0  0  0  0
    0.5293   -0.3651    0.8851 H   0  0  0  0  0  0  0  0  0  0  0  0
   -1.0205   -0.3814    0.0098 H   0  0  0  0  0  0  0  0  0  0  0  0
    2.5098   -0.5199   -2.2412 H   0  0  0  0  0  0  0  0  0  0  0  0
    2.5833    0.2026   -0.6162 H   0  0  0  0  0  0  0  0  0  0  0  0
    2.1177   -2.7506   -1.2316 H   0  0  0  0  0  0  0  0  0  0  0  0
    3.6395   -2.0407   -0.6413 H   0  0  0  0  0  0  0  0  0  0  0  0
    2.1912   -2.0280    0.3934 H   0  0  0  0  0  0  0  0  0  0  0  0
   -2.1485    1.2135   -2.5796 H   0  0  0  0  0  0  0  0  0  0  0  0
   -2.3583    3.2539   -3.9419 H   0  0  0  0  0  0  0  0  0  0  0  0
   -0.2543    3.9556   -6.8687 H   0  0  0  0  0  0  0  0  0  0  0  0
   -1.7555    4.3750   -6.0092 H   0  0  0  0  0  0  0  0  0  0  0  0
   -0.4267    5.4502   -4.2129 H   0  0  0  0  0  0  0  0  0  0  0  0
    1.0745    5.0308   -5.0723 H   0  0  0  0  0  0  0  0  0  0  0  0
   -0.5916    6.4695   -6.8416 H   0  0  0  0  0  0  0  0  0  0  0  0
    1.3781   10.0598   -5.1531 H   0  0  0  0  0  0  0  0  0  0  0  0
    1.2131   11.0791   -7.7819 H   0  0  0  0  0  0  0  0  0  0  0  0
   -0.2881   11.4986   -6.9224 H   0  0  0  0  0  0  0  0  0  0  0  0
    1.0026   13.5038   -7.9289 H   0  0  0  0  0  0  0  0  0  0  0  0
    0.4906   14.3222   -6.4149 H   0  0  0  0  0  0  0  0  0  0  0  0
    2.8252   15.0525   -7.6502 H   0  0  0  0  0  0  0  0  0  0  0  0
    2.7493   14.9523   -5.8577 H   0  0  0  0  0  0  0  0  0  0  0  0
    3.7559   12.8469   -7.8493 H   0  0  0  0  0  0  0  0  0  0  0  0
    4.5383   13.4100   -6.3416 H   0  0  0  0  0  0  0  0  0  0  0  0
    1.2392    2.2494   -6.0006 H   0  0  0  0  0  0  0  0  0  0  0  0
    1.4511    0.2109   -4.6357 H   0  0  0  0  0  0  0  0  0  0  0  0
  1  2  1  0
  1 30  1  6
  1 31  1  0
  1 32  1  0
  2  3  1  0
  2 33  1  1
  2 34  1  0
  3  4  1  0
  6  3  1  1
  4  5  1  0
  4 35  1  6
  4 36  1  0
  5 37  1  6
  5 38  1  0
  5 39  1  0
  6  7  2  0
  6  8  2  0
  6  9  1  0
  9 29  2  0
  9 10  1  0
 10 11  2  0
 10 40  1  0
 11 12  1  0
 11 41  1  0
 12 13  1  0
 12 28  2  0
 13 14  1  0
 13 42  1  6
 13 43  1  0
 14 15  1  0
 14 44  1  1
 14 45  1  0
 15 16  1  0
 15 46  1  0
 16 17  2  0
 16 18  1  0
 18 19  2  0
 18 20  1  0
 20 21  1  0
 20 47  1  0
 21 22  1  0
 21 48  1  6
 21 49  1  0
 22 23  1  1
 22 27  1  0
 22 24  1  0
 24 25  1  0
 24 50  1  6
 24 51  1  0
 25 26  1  0
 25 52  1  6
 25 53  1  0
 26 27  1  0
 26 54  1  6
 26 55  1  0
 28 29  1  0
 28 56  1  0
 29 57  1  0
M  END
$$$$
