ZINC000039986223
     RDKit          3D

 62 63  0  0  1  0  0  0  0  0999 V2000
   -0.0187    1.5258    0.0104 C   0  0  1  0  0  0  0  0  0  0  0  0
    0.0021   -0.0041    0.0020 C   0  0  1  0  0  0  0  0  0  0  0  0
   -1.3386   -0.4987    0.0122 O   0  0  0  0  0  0  0  0  0  0  0  0
   -1.4983   -1.8483    0.0064 C   0  0  0  0  0  0  0  0  0  0  0  0
   -0.3877   -2.6793   -0.0028 C   0  0  0  0  0  0  0  0  0  0  0  0
   -0.5528   -4.0510   -0.0082 C   0  0  0  0  0  0  0  0  0  0  0  0
   -1.8235   -4.5955   -0.0047 C   0  0  0  0  0  0  0  0  0  0  0  0
   -2.0307   -6.3452   -0.0121 S   0  0  1  0  0  0  0  0  0  0  0  0
   -3.3215   -6.5942   -0.5516 O   0  0  0  0  0  0  0  0  0  0  0  0
   -0.8394   -6.8880   -0.5648 O   0  0  0  0  0  0  0  0  0  0  0  0
   -2.0808   -6.8396    1.5676 N   0  0  0  0  0  0  0  0  0  0  0  0
   -3.3628   -6.9092    2.2731 C   0  0  1  0  0  0  0  0  0  0  0  0
   -3.9134   -8.3343    2.1911 C   0  0  1  0  0  0  0  0  0  0  0  0
   -0.8430   -7.2074    2.2596 C   0  0  1  0  0  0  0  0  0  0  0  0
   -0.3224   -6.0177    3.0242 C   0  0  0  0  0  0  0  0  0  0  0  0
   -0.9258   -4.9661    2.9940 O   0  0  0  0  0  0  0  0  0  0  0  0
    0.8138   -6.1223    3.7415 N   0  0  0  0  0  0  0  0  0  0  0  0
    1.3199   -4.9657    4.4848 C   0  0  1  0  0  0  0  0  0  0  0  0
    1.1067   -4.0538    3.9271 H   0  0  0  0  0  0  0  0  0  0  0  0
    0.6363   -4.8991    5.8519 C   0  0  1  0  0  0  0  0  0  0  0  0
    2.8315   -5.1044    4.6767 C   0  0  1  0  0  0  0  0  0  0  0  0
    3.5260   -5.0458    3.3146 C   0  0  1  0  0  0  0  0  0  0  0  0
    5.0148   -5.1825    3.5036 C   0  0  0  0  0  0  0  0  0  0  0  0
    5.7933   -4.0565    3.6963 C   0  0  0  0  0  0  0  0  0  0  0  0
    7.1590   -4.1819    3.8697 C   0  0  0  0  0  0  0  0  0  0  0  0
    7.7462   -5.4332    3.8508 C   0  0  0  0  0  0  0  0  0  0  0  0
    6.9675   -6.5592    3.6590 C   0  0  0  0  0  0  0  0  0  0  0  0
    5.6013   -6.4342    3.4899 C   0  0  0  0  0  0  0  0  0  0  0  0
   -2.9323   -3.7692    0.0050 C   0  0  0  0  0  0  0  0  0  0  0  0
   -2.7726   -2.3972    0.0157 C   0  0  0  0  0  0  0  0  0  0  0  0
   -3.9814   -1.4973    0.0267 C   0  0  1  0  0  0  0  0  0  0  0  0
    1.0039    1.9031    0.0027 H   0  0  0  0  0  0  0  0  0  0  0  0
   -0.5459    1.8868   -0.8726 H   0  0  0  0  0  0  0  0  0  0  0  0
   -0.5289    1.8773    0.9072 H   0  0  0  0  0  0  0  0  0  0  0  0
    0.5123   -0.3556   -0.8948 H   0  0  0  0  0  0  0  0  0  0  0  0
    0.5293   -0.3651    0.8851 H   0  0  0  0  0  0  0  0  0  0  0  0
    0.6052   -2.2544   -0.0062 H   0  0  0  0  0  0  0  0  0  0  0  0
    0.3115   -4.6985   -0.0154 H   0  0  0  0  0  0  0  0  0  0  0  0
   -3.2179   -6.6352    3.3181 H   0  0  0  0  0  0  0  0  0  0  0  0
   -4.0695   -6.2195    1.8114 H   0  0  0  0  0  0  0  0  0  0  0  0
   -4.8673   -8.3861    2.7159 H   0  0  0  0  0  0  0  0  0  0  0  0
   -4.0584   -8.6082    1.1460 H   0  0  0  0  0  0  0  0  0  0  0  0
   -3.2068   -9.0239    2.6528 H   0  0  0  0  0  0  0  0  0  0  0  0
   -1.0431   -8.0251    2.9521 H   0  0  0  0  0  0  0  0  0  0  0  0
   -0.0986   -7.5239    1.5291 H   0  0  0  0  0  0  0  0  0  0  0  0
    1.2965   -6.9633    3.7657 H   0  0  0  0  0  0  0  0  0  0  0  0
    0.8495   -5.8110    6.4096 H   0  0  0  0  0  0  0  0  0  0  0  0
    1.0128   -4.0386    6.4049 H   0  0  0  0  0  0  0  0  0  0  0  0
   -0.4406   -4.8002    5.7152 H   0  0  0  0  0  0  0  0  0  0  0  0
    3.1942   -4.2908    5.3048 H   0  0  0  0  0  0  0  0  0  0  0  0
    3.0509   -6.0587    5.1555 H   0  0  0  0  0  0  0  0  0  0  0  0
    3.1633   -5.8594    2.6865 H   0  0  0  0  0  0  0  0  0  0  0  0
    3.3066   -4.0915    2.8357 H   0  0  0  0  0  0  0  0  0  0  0  0
    5.3346   -3.0789    3.7111 H   0  0  0  0  0  0  0  0  0  0  0  0
    7.7673   -3.3022    4.0195 H   0  0  0  0  0  0  0  0  0  0  0  0
    8.8132   -5.5311    3.9856 H   0  0  0  0  0  0  0  0  0  0  0  0
    7.4263   -7.5368    3.6440 H   0  0  0  0  0  0  0  0  0  0  0  0
    4.9930   -7.3139    3.3401 H   0  0  0  0  0  0  0  0  0  0  0  0
   -3.9240   -4.1969    0.0080 H   0  0  0  0  0  0  0  0  0  0  0  0
   -4.2696   -1.2887    1.0570 H   0  0  0  0  0  0  0  0  0  0  0  0
   -3.7429   -0.5623   -0.4803 H   0  0  0  0  0  0  0  0  0  0  0  0
   -4.8059   -1.9900   -0.4886 H   0  0  0  0  0  0  0  0  0  0  0  0
  1  2  1  0
  1 32  1  6
  1 33  1  0
  1 34  1  0
  2  3  1  0
  2 35  1  6
  2 36  1  0
  3  4  1  0
  4 30  2  0
  4  5  1  0
  5  6  2  0
  5 37  1  0
  6  7  1  0
  6 38  1  0
  7  8  1  0
  7 29  2  0
  8  9  2  0
  8 10  2  0
  8 11  1  1
 11 12  1  0
 11 14  1  0
 12 13  1  0
 12 39  1  1
 12 40  1  0
 13 41  1  1
 13 42  1  0
 13 43  1  0
 14 15  1  0
 14 44  1  1
 14 45  1  0
 15 16  2  0
 15 17  1  0
 17 18  1  0
 17 46  1  0
 18 19  1  6
 18 20  1  0
 18 21  1  0
 20 47  1  1
 20 48  1  0
 20 49  1  0
 21 22  1  0
 21 50  1  1
 21 51  1  0
 22 23  1  0
 22 52  1  6
 22 53  1  0
 23 28  2  0
 23 24  1  0
 24 25  2  0
 24 54  1  0
 25 26  1  0
 25 55  1  0
 26 27  2  0
 26 56  1  0
 27 28  1  0
 27 57  1  0
 28 58  1  0
 29 30  1  0
 29 59  1  0
 30 31  1  0
 31 60  1  1
 31 61  1  0
 31 62  1  0
M  END
$$$$
