ZINC000065385089
     RDKit          3D

 43 44  0  0  1  0  0  0  0  0999 V2000
    0.5520   -0.0744    1.3966 C   0  0  1  0  0  0  0  0  0  0  0  0
    0.0145   -0.0321    0.0301 N   0  0  0  0  0  0  0  0  0  0  0  0
    0.9365   -0.6713   -0.9183 C   0  0  1  0  0  0  0  0  0  0  0  0
   -1.3165   -0.6508   -0.0315 C   0  0  2  0  0  0  0  0  0  0  0  0
   -1.2304   -1.7187    0.1692 H   0  0  0  0  0  0  0  0  0  0  0  0
   -1.9039   -0.4433   -1.4037 C   0  0  0  0  0  0  0  0  0  0  0  0
   -1.4761    0.4372   -2.1197 O   0  0  0  0  0  0  0  0  0  0  0  0
   -2.9046   -1.2362   -1.8353 N   0  0  0  0  0  0  0  0  0  0  0  0
   -3.4756   -1.0346   -3.1693 C   0  0  1  0  0  0  0  0  0  0  0  0
   -4.5865   -2.0590   -3.4087 C   0  0  1  0  0  0  0  0  0  0  0  0
   -5.1575   -1.8573   -4.7427 N   0  0  0  0  0  0  0  0  0  0  0  0
   -6.2883   -0.9726   -5.0607 C   0  0  1  0  0  0  0  0  0  0  0  0
   -6.4699   -1.1376   -6.5820 C   0  0  1  0  0  0  0  0  0  0  0  0
   -5.4221   -2.0978   -6.9598 N   0  0  0  0  0  0  0  0  0  0  0  0
   -4.7289   -2.4450   -5.8674 C   0  0  0  0  0  0  0  0  0  0  0  0
   -3.8003   -3.2295   -5.8931 O   0  0  0  0  0  0  0  0  0  0  0  0
   -2.2135   -0.0165    1.0000 C   0  0  0  0  0  0  0  0  0  0  0  0
   -2.2631    1.3597    1.1199 C   0  0  0  0  0  0  0  0  0  0  0  0
   -3.0857    1.9430    2.0659 C   0  0  0  0  0  0  0  0  0  0  0  0
   -3.8590    1.1508    2.8926 C   0  0  0  0  0  0  0  0  0  0  0  0
   -3.8105   -0.2280    2.7731 C   0  0  0  0  0  0  0  0  0  0  0  0
   -4.5662   -1.0036    3.5809 F   0  0  0  0  0  0  0  0  0  0  0  0
   -2.9905   -0.8108    1.8221 C   0  0  0  0  0  0  0  0  0  0  0  0
    1.5510    0.3614    1.4077 H   0  0  0  0  0  0  0  0  0  0  0  0
   -0.0995    0.4932    2.0610 H   0  0  0  0  0  0  0  0  0  0  0  0
    0.6033   -1.1093    1.7349 H   0  0  0  0  0  0  0  0  0  0  0  0
    1.0862   -1.7128   -0.6337 H   0  0  0  0  0  0  0  0  0  0  0  0
    0.5142   -0.6260   -1.9221 H   0  0  0  0  0  0  0  0  0  0  0  0
    1.8932   -0.1493   -0.9027 H   0  0  0  0  0  0  0  0  0  0  0  0
   -3.2467   -1.9405   -1.2627 H   0  0  0  0  0  0  0  0  0  0  0  0
   -3.8881   -0.0281   -3.2395 H   0  0  0  0  0  0  0  0  0  0  0  0
   -2.6965   -1.1611   -3.9210 H   0  0  0  0  0  0  0  0  0  0  0  0
   -4.1740   -3.0654   -3.3385 H   0  0  0  0  0  0  0  0  0  0  0  0
   -5.3657   -1.9324   -2.6571 H   0  0  0  0  0  0  0  0  0  0  0  0
   -7.1856   -1.2932   -4.5313 H   0  0  0  0  0  0  0  0  0  0  0  0
   -6.0464    0.0612   -4.8141 H   0  0  0  0  0  0  0  0  0  0  0  0
   -7.4572   -1.5402   -6.8081 H   0  0  0  0  0  0  0  0  0  0  0  0
   -6.3180   -0.1858   -7.0910 H   0  0  0  0  0  0  0  0  0  0  0  0
   -5.2565   -2.4246   -7.8579 H   0  0  0  0  0  0  0  0  0  0  0  0
   -1.6587    1.9797    0.4744 H   0  0  0  0  0  0  0  0  0  0  0  0
   -3.1234    3.0184    2.1589 H   0  0  0  0  0  0  0  0  0  0  0  0
   -4.5009    1.6067    3.6319 H   0  0  0  0  0  0  0  0  0  0  0  0
   -2.9521   -1.8860    1.7277 H   0  0  0  0  0  0  0  0  0  0  0  0
  1  2  1  0
  1 24  1  6
  1 25  1  0
  1 26  1  0
  2  3  1  0
  2  4  1  0
  3 27  1  1
  3 28  1  0
  3 29  1  0
  4  5  1  1
  4  6  1  0
  4 17  1  0
  6  7  2  0
  6  8  1  0
  8  9  1  0
  8 30  1  0
  9 10  1  0
  9 31  1  1
  9 32  1  0
 10 11  1  0
 10 33  1  6
 10 34  1  0
 11 15  1  0
 11 12  1  0
 12 13  1  0
 12 35  1  1
 12 36  1  0
 13 14  1  0
 13 37  1  1
 13 38  1  0
 14 15  1  0
 14 39  1  0
 15 16  2  0
 17 23  2  0
 17 18  1  0
 18 19  2  0
 18 40  1  0
 19 20  1  0
 19 41  1  0
 20 21  2  0
 20 42  1  0
 21 22  1  0
 21 23  1  0
 23 43  1  0
M  END
$$$$
