ZINC000003457872
     RDKit          3D

 42 43  0  0  1  0  0  0  0  0999 V2000
   -0.0375    1.5261    0.0528 C   0  0  1  0  0  0  0  0  0  0  0  0
   -0.0124   -0.0036    0.0337 C   0  0  1  0  0  0  0  0  0  0  0  0
    0.7107   -0.4948    1.2093 N   0  0  0  0  0  0  0  0  0  0  0  0
    0.0085   -0.6621    2.4841 C   0  0  1  0  0  0  0  0  0  0  0  0
   -0.6744   -2.0309    2.5144 C   0  0  1  0  0  0  0  0  0  0  0  0
    2.3218   -0.8609    1.0972 S   0  0  1  0  0  0  0  0  0  0  0  0
    2.5967   -1.7858    2.1404 O   0  0  0  0  0  0  0  0  0  0  0  0
    2.5761   -1.1371   -0.2734 O   0  0  0  0  0  0  0  0  0  0  0  0
    3.2182    0.6060    1.4837 C   0  0  0  0  0  0  0  0  0  0  0  0
    3.5543    1.4942    0.4786 C   0  0  0  0  0  0  0  0  0  0  0  0
    4.2568    2.6449    0.7783 C   0  0  0  0  0  0  0  0  0  0  0  0
    4.6253    2.9097    2.0908 C   0  0  0  0  0  0  0  0  0  0  0  0
    5.3367    4.0748    2.3979 N   0  0  0  0  0  0  0  0  0  0  0  0
    5.6731    4.5049    3.7601 C   0  0  1  0  0  0  0  0  0  0  0  0
    6.0473    5.9988    3.6401 C   0  0  1  0  0  0  0  0  0  0  0  0
    5.1790    6.6338    3.8160 H   0  0  0  0  0  0  0  0  0  0  0  0
    7.1694    6.3512    4.5824 C   0  0  0  0  0  0  0  0  0  0  0  0
    7.9517    7.2405    4.2932 O   0  0  0  0  0  0  0  0  0  0  0  0
    7.2949    5.7469    5.6338 O   0  0  0  0  0  0  0  0  0  0  0  0
    6.5107    6.0905    2.1677 C   0  0  1  0  0  0  0  0  0  0  0  0
    5.8048    4.9410    1.4827 C   0  0  0  0  0  0  0  0  0  0  0  0
    5.6739    4.8221    0.2828 O   0  0  0  0  0  0  0  0  0  0  0  0
    4.2858    2.0159    3.0980 C   0  0  0  0  0  0  0  0  0  0  0  0
    3.5790    0.8693    2.7924 C   0  0  0  0  0  0  0  0  0  0  0  0
    0.9838    1.9065    0.0363 H   0  0  0  0  0  0  0  0  0  0  0  0
   -0.5755    1.8916   -0.8219 H   0  0  0  0  0  0  0  0  0  0  0  0
   -0.5387    1.8700    0.9576 H   0  0  0  0  0  0  0  0  0  0  0  0
   -1.0338   -0.3839    0.0503 H   0  0  0  0  0  0  0  0  0  0  0  0
    0.4888   -0.3475   -0.8710 H   0  0  0  0  0  0  0  0  0  0  0  0
    0.7233   -0.5945    3.3043 H   0  0  0  0  0  0  0  0  0  0  0  0
   -0.7422    0.1209    2.5910 H   0  0  0  0  0  0  0  0  0  0  0  0
   -1.1969   -2.1554    3.4629 H   0  0  0  0  0  0  0  0  0  0  0  0
   -1.3892   -2.0985    1.6943 H   0  0  0  0  0  0  0  0  0  0  0  0
    0.0762   -2.8139    2.4075 H   0  0  0  0  0  0  0  0  0  0  0  0
    3.2674    1.2877   -0.5419 H   0  0  0  0  0  0  0  0  0  0  0  0
    4.5196    3.3379   -0.0072 H   0  0  0  0  0  0  0  0  0  0  0  0
    4.8122    4.3833    4.4175 H   0  0  0  0  0  0  0  0  0  0  0  0
    6.5207    3.9329    4.1378 H   0  0  0  0  0  0  0  0  0  0  0  0
    6.2081    7.0422    1.7311 H   0  0  0  0  0  0  0  0  0  0  0  0
    7.5913    5.9647    2.0993 H   0  0  0  0  0  0  0  0  0  0  0  0
    4.5710    2.2189    4.1197 H   0  0  0  0  0  0  0  0  0  0  0  0
    3.3147    0.1738    3.5752 H   0  0  0  0  0  0  0  0  0  0  0  0
  1  2  1  0
  1 25  1  6
  1 26  1  0
  1 27  1  0
  2  3  1  0
  2 28  1  1
  2 29  1  0
  3  4  1  0
  6  3  1  6
  4  5  1  0
  4 30  1  1
  4 31  1  0
  5 32  1  1
  5 33  1  0
  5 34  1  0
  6  7  2  0
  6  8  2  0
  6  9  1  0
  9 24  2  0
  9 10  1  0
 10 11  2  0
 10 35  1  0
 11 12  1  0
 11 36  1  0
 12 13  1  0
 12 23  2  0
 13 21  1  0
 13 14  1  0
 14 15  1  0
 14 37  1  1
 14 38  1  0
 15 16  1  6
 15 17  1  0
 15 20  1  0
 17 18  2  0
 17 19  1  0
 20 21  1  0
 20 39  1  6
 20 40  1  0
 21 22  2  0
 23 24  1  0
 23 41  1  0
 24 42  1  0
M  END
$$$$
