ZINC000409009259
     RDKit          3D

 64 66  0  0  0  0  0  0  0  0999 V2000
   -9.0578   -6.1146    4.1572 C   0  0  1  0  0  0  0  0  0  0  0  0
   -9.2411   -4.7883    3.6578 O   0  0  0  0  0  0  0  0  0  0  0  0
   -8.2892   -4.3098    2.8125 C   0  0  0  0  0  0  0  0  0  0  0  0
   -7.2063   -5.1015    2.4671 C   0  0  0  0  0  0  0  0  0  0  0  0
   -6.2395   -4.6135    1.6071 C   0  0  0  0  0  0  0  0  0  0  0  0
   -6.3506   -3.3363    1.0908 C   0  0  0  0  0  0  0  0  0  0  0  0
   -5.1151   -2.7203   -0.0041 S   0  0  1  0  0  0  0  0  0  0  0  0
   -5.1615   -1.3035    0.0950 O   0  0  0  0  0  0  0  0  0  0  0  0
   -3.9405   -3.4790    0.2487 O   0  0  0  0  0  0  0  0  0  0  0  0
   -5.5928   -3.0972   -1.5442 N   0  0  0  0  0  0  0  0  0  0  0  0
   -5.3013   -4.4218   -2.0981 C   0  0  1  0  0  0  0  0  0  0  0  0
   -6.4904   -5.3247   -1.8936 C   0  0  0  0  0  0  0  0  0  0  0  0
   -7.4837   -4.9032   -1.3397 O   0  0  0  0  0  0  0  0  0  0  0  0
   -6.4502   -6.6005   -2.3262 N   0  0  0  0  0  0  0  0  0  0  0  0
   -7.6062   -7.4782   -2.1274 C   0  0  1  0  0  0  0  0  0  0  0  0
   -8.5775   -7.2997   -3.2627 C   0  0  1  0  0  0  0  0  0  0  0  0
  -10.0432   -7.4565   -2.8147 C   0  0  1  0  0  0  0  0  0  0  0  0
  -10.2454   -8.6243   -1.8303 C   0  0  1  0  0  0  0  0  0  0  0  0
   -9.4631   -9.8489   -2.2212 C   0  0  1  0  0  0  0  0  0  0  0  0
   -8.1144   -9.8281   -1.4730 C   0  0  1  0  0  0  0  0  0  0  0  0
   -7.1424   -8.9490   -2.1060 C   0  0  1  0  0  0  0  0  0  0  0  0
   -6.3071   -2.1062   -2.3528 C   0  0  1  0  0  0  0  0  0  0  0  0
   -5.3272   -1.3791   -3.2373 C   0  0  0  0  0  0  0  0  0  0  0  0
   -4.7917   -0.1718   -2.8293 C   0  0  0  0  0  0  0  0  0  0  0  0
   -3.8929    0.4951   -3.6406 C   0  0  0  0  0  0  0  0  0  0  0  0
   -3.5292   -0.0456   -4.8598 C   0  0  0  0  0  0  0  0  0  0  0  0
   -4.0640   -1.2534   -5.2674 C   0  0  0  0  0  0  0  0  0  0  0  0
   -4.9595   -1.9223   -4.4541 C   0  0  0  0  0  0  0  0  0  0  0  0
   -7.4294   -2.5410    1.4312 C   0  0  0  0  0  0  0  0  0  0  0  0
   -8.4041   -3.0256    2.2880 C   0  0  0  0  0  0  0  0  0  0  0  0
   -9.4657   -2.2447    2.6237 O   0  0  0  0  0  0  0  0  0  0  0  0
   -9.5124   -0.9342    2.0559 C   0  0  1  0  0  0  0  0  0  0  0  0
   -9.8856   -6.3716    4.8180 H   0  0  0  0  0  0  0  0  0  0  0  0
   -9.0273   -6.8159    3.3233 H   0  0  0  0  0  0  0  0  0  0  0  0
   -8.1206   -6.1679    4.7112 H   0  0  0  0  0  0  0  0  0  0  0  0
   -7.1167   -6.0996    2.8697 H   0  0  0  0  0  0  0  0  0  0  0  0
   -5.3956   -5.2318    1.3386 H   0  0  0  0  0  0  0  0  0  0  0  0
   -5.0924   -4.3319   -3.1641 H   0  0  0  0  0  0  0  0  0  0  0  0
   -4.4332   -4.8442   -1.5921 H   0  0  0  0  0  0  0  0  0  0  0  0
   -5.6558   -6.9376   -2.7691 H   0  0  0  0  0  0  0  0  0  0  0  0
   -8.0932   -7.2340   -1.1833 H   0  0  0  0  0  0  0  0  0  0  0  0
   -8.4434   -6.3053   -3.6885 H   0  0  0  0  0  0  0  0  0  0  0  0
   -8.3622   -8.0422   -4.0310 H   0  0  0  0  0  0  0  0  0  0  0  0
  -10.3649   -6.5324   -2.3345 H   0  0  0  0  0  0  0  0  0  0  0  0
  -10.6634   -7.6272   -3.6946 H   0  0  0  0  0  0  0  0  0  0  0  0
   -9.9298   -8.3066   -0.8365 H   0  0  0  0  0  0  0  0  0  0  0  0
  -11.3049   -8.8784   -1.7973 H   0  0  0  0  0  0  0  0  0  0  0  0
  -10.0212  -10.7435   -1.9451 H   0  0  0  0  0  0  0  0  0  0  0  0
   -9.2854   -9.8420   -3.2966 H   0  0  0  0  0  0  0  0  0  0  0  0
   -8.2831   -9.4898   -0.4506 H   0  0  0  0  0  0  0  0  0  0  0  0
   -7.7102  -10.8400   -1.4459 H   0  0  0  0  0  0  0  0  0  0  0  0
   -6.9794   -9.2827   -3.1308 H   0  0  0  0  0  0  0  0  0  0  0  0
   -6.2004   -9.0142   -1.5615 H   0  0  0  0  0  0  0  0  0  0  0  0
   -7.0506   -2.6093   -2.9710 H   0  0  0  0  0  0  0  0  0  0  0  0
   -6.8037   -1.3915   -1.6965 H   0  0  0  0  0  0  0  0  0  0  0  0
   -5.0759    0.2506   -1.8768 H   0  0  0  0  0  0  0  0  0  0  0  0
   -3.4751    1.4387   -3.3222 H   0  0  0  0  0  0  0  0  0  0  0  0
   -2.8275    0.4758   -5.4940 H   0  0  0  0  0  0  0  0  0  0  0  0
   -3.7801   -1.6756   -6.2200 H   0  0  0  0  0  0  0  0  0  0  0  0
   -5.3773   -2.8660   -4.7726 H   0  0  0  0  0  0  0  0  0  0  0  0
   -7.5138   -1.5433    1.0263 H   0  0  0  0  0  0  0  0  0  0  0  0
   -8.6286   -0.3742    2.3614 H   0  0  0  0  0  0  0  0  0  0  0  0
   -9.5367   -1.0100    0.9688 H   0  0  0  0  0  0  0  0  0  0  0  0
  -10.4075   -0.4190    2.4043 H   0  0  0  0  0  0  0  0  0  0  0  0
  1  2  1  0
  1 33  1  1
  1 34  1  0
  1 35  1  0
  2  3  1  0
  3 30  2  0
  3  4  1  0
  4  5  2  0
  4 36  1  0
  5  6  1  0
  5 37  1  0
  6  7  1  0
  6 29  2  0
  7  8  2  0
  7  9  2  0
  7 10  1  6
 10 11  1  0
 10 22  1  0
 11 12  1  0
 11 38  1  6
 11 39  1  0
 12 13  2  0
 12 14  1  0
 14 15  1  0
 14 40  1  0
 15 21  1  0
 15 16  1  0
 15 41  1  1
 16 17  1  0
 16 42  1  6
 16 43  1  0
 17 18  1  0
 17 44  1  1
 17 45  1  0
 18 19  1  0
 18 46  1  1
 18 47  1  0
 19 20  1  0
 19 48  1  6
 19 49  1  0
 20 21  1  0
 20 50  1  1
 20 51  1  0
 21 52  1  6
 21 53  1  0
 22 23  1  0
 22 54  1  6
 22 55  1  0
 23 28  2  0
 23 24  1  0
 24 25  2  0
 24 56  1  0
 25 26  1  0
 25 57  1  0
 26 27  2  0
 26 58  1  0
 27 28  1  0
 27 59  1  0
 28 60  1  0
 29 30  1  0
 29 61  1  0
 30 31  1  0
 31 32  1  0
 32 62  1  6
 32 63  1  0
 32 64  1  0
M  END
$$$$
