ZINC000006552265
     RDKit          3D

 59 61  0  0  0  0  0  0  0  0999 V2000
    0.0004    1.4268    0.0273 C   0  0  1  0  0  0  0  0  0  0  0  0
    0.0129   -0.0021    0.0132 O   0  0  0  0  0  0  0  0  0  0  0  0
   -1.2873   -0.5949    0.0240 C   0  0  1  0  0  0  0  0  0  0  0  0
   -1.1531   -2.1189    0.0075 C   0  0  1  0  0  0  0  0  0  0  0  0
   -0.5128   -2.5663    1.2469 N   0  0  0  0  0  0  0  0  0  0  0  0
   -1.3201   -2.7908    2.4486 C   0  0  1  0  0  0  0  0  0  0  0  0
   -1.8962   -4.1830    2.4139 C   0  0  0  0  0  0  0  0  0  0  0  0
   -1.6561   -4.9154    1.4774 O   0  0  0  0  0  0  0  0  0  0  0  0
   -2.6782   -4.6141    3.4233 N   0  0  0  0  0  0  0  0  0  0  0  0
   -3.2917   -5.8693    3.3461 C   0  0  0  0  0  0  0  0  0  0  0  0
   -4.5590   -6.0585    3.8815 C   0  0  0  0  0  0  0  0  0  0  0  0
   -5.1618   -7.2987    3.8037 C   0  0  0  0  0  0  0  0  0  0  0  0
   -4.5045   -8.3515    3.1940 C   0  0  0  0  0  0  0  0  0  0  0  0
   -3.2423   -8.1665    2.6604 C   0  0  0  0  0  0  0  0  0  0  0  0
   -2.6368   -6.9271    2.7290 C   0  0  0  0  0  0  0  0  0  0  0  0
    1.1233   -2.8180    1.2896 S   0  0  1  0  0  0  0  0  0  0  0  0
    1.3616   -3.7284    2.3543 O   0  0  0  0  0  0  0  0  0  0  0  0
    1.5261   -3.0665   -0.0503 O   0  0  0  0  0  0  0  0  0  0  0  0
    1.8734   -1.2947    1.7602 C   0  0  0  0  0  0  0  0  0  0  0  0
    2.2413   -0.3777    0.7934 C   0  0  0  0  0  0  0  0  0  0  0  0
    2.8297    0.8174    1.1627 C   0  0  0  0  0  0  0  0  0  0  0  0
    3.0498    1.0957    2.4987 C   0  0  0  0  0  0  0  0  0  0  0  0
    3.8004    2.6188    2.9693 S   0  0  1  0  0  0  0  0  0  0  0  0
    4.3852    2.4004    4.2458 O   0  0  0  0  0  0  0  0  0  0  0  0
    4.5403    3.0668    1.8418 O   0  0  0  0  0  0  0  0  0  0  0  0
    2.5815    3.7169    3.1950 N   0  0  0  0  0  0  0  0  0  0  0  0
    2.0206    4.5990    2.1612 C   0  0  1  0  0  0  0  0  0  0  0  0
    0.9321    5.4605    2.8353 C   0  0  1  0  0  0  0  0  0  0  0  0
    1.3309    5.4142    4.3340 C   0  0  1  0  0  0  0  0  0  0  0  0
    1.8747    3.9672    4.4643 C   0  0  1  0  0  0  0  0  0  0  0  0
    2.6807    0.1793    3.4655 C   0  0  0  0  0  0  0  0  0  0  0  0
    2.0888   -1.0141    3.0966 C   0  0  0  0  0  0  0  0  0  0  0  0
    1.0247    1.7992    0.0179 H   0  0  0  0  0  0  0  0  0  0  0  0
   -0.5279    1.7942   -0.8525 H   0  0  0  0  0  0  0  0  0  0  0  0
   -0.5052    1.7768    0.9273 H   0  0  0  0  0  0  0  0  0  0  0  0
   -1.8196   -0.2868    0.9239 H   0  0  0  0  0  0  0  0  0  0  0  0
   -1.8423   -0.2694   -0.8558 H   0  0  0  0  0  0  0  0  0  0  0  0
   -2.1421   -2.5699   -0.0739 H   0  0  0  0  0  0  0  0  0  0  0  0
   -0.5448   -2.4208   -0.8451 H   0  0  0  0  0  0  0  0  0  0  0  0
   -0.6935   -2.6789    3.3334 H   0  0  0  0  0  0  0  0  0  0  0  0
   -2.1307   -2.0630    2.4831 H   0  0  0  0  0  0  0  0  0  0  0  0
   -2.8158   -4.0542    4.2034 H   0  0  0  0  0  0  0  0  0  0  0  0
   -5.0726   -5.2368    4.3584 H   0  0  0  0  0  0  0  0  0  0  0  0
   -6.1474   -7.4465    4.2198 H   0  0  0  0  0  0  0  0  0  0  0  0
   -4.9778   -9.3205    3.1347 H   0  0  0  0  0  0  0  0  0  0  0  0
   -2.7312   -8.9909    2.1854 H   0  0  0  0  0  0  0  0  0  0  0  0
   -1.6510   -6.7832    2.3121 H   0  0  0  0  0  0  0  0  0  0  0  0
    2.0693   -0.5951   -0.2504 H   0  0  0  0  0  0  0  0  0  0  0  0
    3.1177    1.5336    0.4073 H   0  0  0  0  0  0  0  0  0  0  0  0
    2.8034    5.2406    1.7567 H   0  0  0  0  0  0  0  0  0  0  0  0
    1.5792    4.0014    1.3636 H   0  0  0  0  0  0  0  0  0  0  0  0
    0.9622    6.4833    2.4597 H   0  0  0  0  0  0  0  0  0  0  0  0
   -0.0546    5.0223    2.6850 H   0  0  0  0  0  0  0  0  0  0  0  0
    2.1061    6.1479    4.5549 H   0  0  0  0  0  0  0  0  0  0  0  0
    0.4613    5.5620    4.9745 H   0  0  0  0  0  0  0  0  0  0  0  0
    1.0526    3.2630    4.5922 H   0  0  0  0  0  0  0  0  0  0  0  0
    2.5692    3.8969    5.3015 H   0  0  0  0  0  0  0  0  0  0  0  0
    2.8524    0.3969    4.5094 H   0  0  0  0  0  0  0  0  0  0  0  0
    1.8004   -1.7301    3.8519 H   0  0  0  0  0  0  0  0  0  0  0  0
  1  2  1  0
  1 33  1  1
  1 34  1  0
  1 35  1  0
  2  3  1  0
  3  4  1  0
  3 36  1  1
  3 37  1  0
  4  5  1  0
  4 38  1  6
  4 39  1  0
  5  6  1  0
 16  5  1  6
  6  7  1  0
  6 40  1  1
  6 41  1  0
  7  8  2  0
  7  9  1  0
  9 10  1  0
  9 42  1  0
 10 15  2  0
 10 11  1  0
 11 12  2  0
 11 43  1  0
 12 13  1  0
 12 44  1  0
 13 14  2  0
 13 45  1  0
 14 15  1  0
 14 46  1  0
 15 47  1  0
 16 17  2  0
 16 18  2  0
 16 19  1  0
 19 32  2  0
 19 20  1  0
 20 21  2  0
 20 48  1  0
 21 22  1  0
 21 49  1  0
 22 23  1  0
 22 31  2  0
 23 24  2  0
 23 25  2  0
 23 26  1  1
 26 30  1  0
 26 27  1  0
 27 28  1  0
 27 50  1  6
 27 51  1  0
 28 29  1  0
 28 52  1  6
 28 53  1  0
 29 30  1  0
 29 54  1  6
 29 55  1  0
 30 56  1  1
 30 57  1  0
 31 32  1  0
 31 58  1  0
 32 59  1  0
M  END
$$$$
