ZINC000045944376
     RDKit          3D

 59 61  0  0  1  0  0  0  0  0999 V2000
   -0.0187    1.5258    0.0104 C   0  0  1  0  0  0  0  0  0  0  0  0
    0.0021   -0.0041    0.0020 C   0  0  1  0  0  0  0  0  0  0  0  0
    0.7309   -0.5033    1.2229 C   0  0  0  0  0  0  0  0  0  0  0  0
    2.0970   -0.7095    1.1762 C   0  0  0  0  0  0  0  0  0  0  0  0
    2.7656   -1.1675    2.2961 C   0  0  0  0  0  0  0  0  0  0  0  0
    2.0682   -1.4187    3.4629 C   0  0  0  0  0  0  0  0  0  0  0  0
    2.9203   -2.0029    4.8902 S   0  0  1  0  0  0  0  0  0  0  0  0
    1.9540   -2.6726    5.6883 O   0  0  0  0  0  0  0  0  0  0  0  0
    4.1080   -2.6265    4.4212 O   0  0  0  0  0  0  0  0  0  0  0  0
    3.3996   -0.6735    5.7533 N   0  0  0  0  0  0  0  0  0  0  0  0
    2.5183   -0.1088    6.7783 C   0  0  1  0  0  0  0  0  0  0  0  0
    2.8958   -0.6800    8.1466 C   0  0  1  0  0  0  0  0  0  0  0  0
    1.9892   -0.0991    9.2009 C   0  0  0  0  0  0  0  0  0  0  0  0
    1.1261    0.6937    8.8888 O   0  0  0  0  0  0  0  0  0  0  0  0
    2.1376   -0.4606   10.4908 N   0  0  0  0  0  0  0  0  0  0  0  0
    3.1816   -1.4158   10.8918 C   0  0  1  0  0  0  0  0  0  0  0  0
    2.5339   -2.5195   11.7347 C   0  0  1  0  0  0  0  0  0  0  0  0
    1.7898   -1.9102   12.8451 N   0  0  0  0  0  0  0  0  0  0  0  0
    0.6876   -1.0734   12.3523 C   0  0  1  0  0  0  0  0  0  0  0  0
    1.2636    0.0942   11.5356 C   0  0  1  0  0  0  0  0  0  0  0  0
    4.7050   -0.0620    5.4920 C   0  0  1  0  0  0  0  0  0  0  0  0
    4.5381    1.0935    4.5030 C   0  0  1  0  0  0  0  0  0  0  0  0
    3.8575    1.8422    4.9084 H   0  0  0  0  0  0  0  0  0  0  0  0
    5.9135    1.7326    4.1856 C   0  0  1  0  0  0  0  0  0  0  0  0
    5.6345    2.3546    2.7902 C   0  0  1  0  0  0  0  0  0  0  0  0
    4.6521    1.3385    2.1690 C   0  0  1  0  0  0  0  0  0  0  0  0
    4.0495    0.6052    3.2436 O   0  0  0  0  0  0  0  0  0  0  0  0
    0.7023   -1.2112    3.5100 C   0  0  0  0  0  0  0  0  0  0  0  0
    0.0343   -0.7496    2.3912 C   0  0  0  0  0  0  0  0  0  0  0  0
    1.0039    1.9031    0.0027 H   0  0  0  0  0  0  0  0  0  0  0  0
   -0.5459    1.8868   -0.8726 H   0  0  0  0  0  0  0  0  0  0  0  0
   -0.5289    1.8773    0.9072 H   0  0  0  0  0  0  0  0  0  0  0  0
   -1.0205   -0.3814    0.0098 H   0  0  0  0  0  0  0  0  0  0  0  0
    0.5123   -0.3556   -0.8948 H   0  0  0  0  0  0  0  0  0  0  0  0
    2.6419   -0.5132    0.2646 H   0  0  0  0  0  0  0  0  0  0  0  0
    3.8328   -1.3293    2.2593 H   0  0  0  0  0  0  0  0  0  0  0  0
    2.6279    0.9756    6.7945 H   0  0  0  0  0  0  0  0  0  0  0  0
    1.4840   -0.3660    6.5500 H   0  0  0  0  0  0  0  0  0  0  0  0
    2.7862   -1.7643    8.1304 H   0  0  0  0  0  0  0  0  0  0  0  0
    3.9301   -0.4227    8.3749 H   0  0  0  0  0  0  0  0  0  0  0  0
    3.6381   -1.8533   10.0040 H   0  0  0  0  0  0  0  0  0  0  0  0
    3.9406   -0.9022   11.4819 H   0  0  0  0  0  0  0  0  0  0  0  0
    1.8506   -3.0982   11.1132 H   0  0  0  0  0  0  0  0  0  0  0  0
    3.3084   -3.1753   12.1324 H   0  0  0  0  0  0  0  0  0  0  0  0
    1.4515   -2.6147   13.4834 H   0  0  0  0  0  0  0  0  0  0  0  0
    0.0300   -1.6723   11.7222 H   0  0  0  0  0  0  0  0  0  0  0  0
    0.1230   -0.6805   13.1979 H   0  0  0  0  0  0  0  0  0  0  0  0
    1.8367    0.7511   12.1899 H   0  0  0  0  0  0  0  0  0  0  0  0
    0.4506    0.6530   11.0720 H   0  0  0  0  0  0  0  0  0  0  0  0
    5.1226    0.3159    6.4252 H   0  0  0  0  0  0  0  0  0  0  0  0
    5.3776   -0.8082    5.0688 H   0  0  0  0  0  0  0  0  0  0  0  0
    6.1670    2.5018    4.9151 H   0  0  0  0  0  0  0  0  0  0  0  0
    6.6951    0.9749    4.1289 H   0  0  0  0  0  0  0  0  0  0  0  0
    5.1681    3.3348    2.8887 H   0  0  0  0  0  0  0  0  0  0  0  0
    6.5508    2.4171    2.2031 H   0  0  0  0  0  0  0  0  0  0  0  0
    3.8822    1.8656    1.6055 H   0  0  0  0  0  0  0  0  0  0  0  0
    5.1918    0.6568    1.5117 H   0  0  0  0  0  0  0  0  0  0  0  0
    0.1575   -1.4071    4.4217 H   0  0  0  0  0  0  0  0  0  0  0  0
   -1.0328   -0.5874    2.4281 H   0  0  0  0  0  0  0  0  0  0  0  0
  1  2  1  0
  1 30  1  6
  1 31  1  0
  1 32  1  0
  2  3  1  0
  2 33  1  1
  2 34  1  0
  3 29  2  0
  3  4  1  0
  4  5  2  0
  4 35  1  0
  5  6  1  0
  5 36  1  0
  6  7  1  0
  6 28  2  0
  7  8  2  0
  7  9  2  0
  7 10  1  1
 10 11  1  0
 10 21  1  0
 11 12  1  0
 11 37  1  1
 11 38  1  0
 12 13  1  0
 12 39  1  6
 12 40  1  0
 13 14  2  0
 13 15  1  0
 15 20  1  0
 15 16  1  0
 16 17  1  0
 16 41  1  6
 16 42  1  0
 17 18  1  0
 17 43  1  6
 17 44  1  0
 18 19  1  0
 18 45  1  0
 19 20  1  0
 19 46  1  6
 19 47  1  0
 20 48  1  1
 20 49  1  0
 21 22  1  0
 21 50  1  1
 21 51  1  0
 22 23  1  1
 22 27  1  0
 22 24  1  0
 24 25  1  0
 24 52  1  1
 24 53  1  0
 25 26  1  0
 25 54  1  1
 25 55  1  0
 26 27  1  0
 26 56  1  6
 26 57  1  0
 28 29  1  0
 28 58  1  0
 29 59  1  0
M  END
$$$$
