ZINC000047267022
     RDKit          3D

 44 46  0  0  1  0  0  0  0  0999 V2000
    0.0994    0.1183   -0.3166 O   0  0  0  0  0  0  0  0  0  0  0  0
    0.0497    1.3185   -0.1490 C   0  0  0  0  0  0  0  0  0  0  0  0
   -1.2997    1.9701   -0.1061 C   0  0  1  0  0  0  0  0  0  0  0  0
   -1.4264    2.8288    1.1569 C   0  0  2  0  0  0  0  0  0  0  0  0
   -0.8576    2.3777    1.9699 H   0  0  0  0  0  0  0  0  0  0  0  0
   -2.8760    2.9480    1.5514 C   0  0  0  0  0  0  0  0  0  0  0  0
   -3.7895    3.4950    0.6698 C   0  0  0  0  0  0  0  0  0  0  0  0
   -5.1192    3.6043    1.0317 C   0  0  0  0  0  0  0  0  0  0  0  0
   -5.5354    3.1663    2.2750 C   0  0  0  0  0  0  0  0  0  0  0  0
   -4.6220    2.6185    3.1562 C   0  0  0  0  0  0  0  0  0  0  0  0
   -3.2931    2.5052    2.7927 C   0  0  0  0  0  0  0  0  0  0  0  0
   -0.8840    4.1527    0.8451 N   0  0  0  0  0  0  0  0  0  0  0  0
   -1.4893    5.5129    1.5701 S   0  0  1  0  0  0  0  0  0  0  0  0
   -1.3455    6.5673    0.6284 O   0  0  0  0  0  0  0  0  0  0  0  0
   -2.7383    5.1429    2.1378 O   0  0  0  0  0  0  0  0  0  0  0  0
   -0.4252    5.9023    2.9194 C   0  0  0  0  0  0  0  0  0  0  0  0
   -0.6717    5.3683    4.1704 C   0  0  0  0  0  0  0  0  0  0  0  0
    0.1632    5.6737    5.2290 C   0  0  0  0  0  0  0  0  0  0  0  0
    1.2447    6.5128    5.0365 C   0  0  0  0  0  0  0  0  0  0  0  0
    2.1545    6.8463    6.1907 C   0  0  1  0  0  0  0  0  0  0  0  0
    3.1910    5.9088    6.2533 F   0  0  0  0  0  0  0  0  0  0  0  0
    2.6924    8.1245    6.0063 F   0  0  0  0  0  0  0  0  0  0  0  0
    1.4248    6.8150    7.3838 F   0  0  0  0  0  0  0  0  0  0  0  0
    1.4919    7.0458    3.7852 C   0  0  0  0  0  0  0  0  0  0  0  0
    0.6593    6.7372    2.7257 C   0  0  0  0  0  0  0  0  0  0  0  0
    0.2174    4.2407   -0.1328 C   0  0  1  0  0  0  0  0  0  0  0  0
    1.3748    3.3706    0.3671 C   0  0  1  0  0  0  0  0  0  0  0  0
    1.1925    1.9778   -0.0090 N   0  0  0  0  0  0  0  0  0  0  0  0
   -1.4252    2.6005   -0.9863 H   0  0  0  0  0  0  0  0  0  0  0  0
   -2.0726    1.2015   -0.1001 H   0  0  0  0  0  0  0  0  0  0  0  0
   -3.4643    3.8372   -0.3015 H   0  0  0  0  0  0  0  0  0  0  0  0
   -5.8327    4.0323    0.3432 H   0  0  0  0  0  0  0  0  0  0  0  0
   -6.5741    3.2524    2.5580 H   0  0  0  0  0  0  0  0  0  0  0  0
   -4.9472    2.2765    4.1277 H   0  0  0  0  0  0  0  0  0  0  0  0
   -2.5796    2.0772    3.4812 H   0  0  0  0  0  0  0  0  0  0  0  0
   -1.5166    4.7127    4.3208 H   0  0  0  0  0  0  0  0  0  0  0  0
   -0.0298    5.2571    6.2065 H   0  0  0  0  0  0  0  0  0  0  0  0
    2.3371    7.7010    3.6347 H   0  0  0  0  0  0  0  0  0  0  0  0
    0.8525    7.1536    1.7481 H   0  0  0  0  0  0  0  0  0  0  0  0
   -0.1225    3.8781   -1.1028 H   0  0  0  0  0  0  0  0  0  0  0  0
    0.5477    5.2757   -0.2220 H   0  0  0  0  0  0  0  0  0  0  0  0
    2.3079    3.7383   -0.0598 H   0  0  0  0  0  0  0  0  0  0  0  0
    1.4293    3.4391    1.4536 H   0  0  0  0  0  0  0  0  0  0  0  0
    2.0016    1.4724   -0.1846 H   0  0  0  0  0  0  0  0  0  0  0  0
  1  2  2  0
  2 28  1  0
  2  3  1  0
  3  4  1  0
  3 29  1  6
  3 30  1  0
  4  5  1  1
  4  6  1  0
  4 12  1  0
  6 11  2  0
  6  7  1  0
  7  8  2  0
  7 31  1  0
  8  9  1  0
  8 32  1  0
  9 10  2  0
  9 33  1  0
 10 11  1  0
 10 34  1  0
 11 35  1  0
 13 12  1  6
 12 26  1  0
 13 14  2  0
 13 15  2  0
 13 16  1  0
 16 25  2  0
 16 17  1  0
 17 18  2  0
 17 36  1  0
 18 19  1  0
 18 37  1  0
 19 20  1  0
 19 24  2  0
 20 21  1  1
 20 22  1  0
 20 23  1  0
 24 25  1  0
 24 38  1  0
 25 39  1  0
 26 27  1  0
 26 40  1  6
 26 41  1  0
 27 28  1  0
 27 42  1  6
 27 43  1  0
 28 44  1  0
M  END
$$$$
