ZINC000016651886
     RDKit          3D

 48 49  0  0  1  0  0  0  0  0999 V2000
   -0.0184    1.5028    0.0103 C   0  0  1  0  0  0  0  0  0  0  0  0
    0.0021   -0.0041    0.0020 C   0  0  0  0  0  0  0  0  0  0  0  0
    0.0057   -0.6887   -1.1976 C   0  0  0  0  0  0  0  0  0  0  0  0
    0.0240   -2.0714   -1.2059 C   0  0  0  0  0  0  0  0  0  0  0  0
    0.0286   -2.9418   -2.7379 S   0  0  1  0  0  0  0  0  0  0  0  0
   -0.4976   -4.2337   -2.4670 O   0  0  0  0  0  0  0  0  0  0  0  0
   -0.5319   -2.0607   -3.7016 O   0  0  0  0  0  0  0  0  0  0  0  0
    1.6115   -3.1630   -3.1712 N   0  0  0  0  0  0  0  0  0  0  0  0
    2.3291   -4.3639   -2.7362 C   0  0  1  0  0  0  0  0  0  0  0  0
    2.2943   -2.1579   -3.9896 C   0  0  1  0  0  0  0  0  0  0  0  0
    0.0391   -2.7720   -0.0142 C   0  0  0  0  0  0  0  0  0  0  0  0
    0.0359   -2.0918    1.1885 C   0  0  0  0  0  0  0  0  0  0  0  0
    0.0230   -0.7048    1.1994 C   0  0  0  0  0  0  0  0  0  0  0  0
    0.0199   -0.0335    2.3810 O   0  0  0  0  0  0  0  0  0  0  0  0
    0.0305   -0.8200    3.5741 C   0  0  1  0  0  0  0  0  0  0  0  0
    0.0252    0.0897    4.7755 C   0  0  0  0  0  0  0  0  0  0  0  0
    0.0135    1.2931    4.6250 O   0  0  0  0  0  0  0  0  0  0  0  0
    0.0334   -0.4340    6.0173 N   0  0  0  0  0  0  0  0  0  0  0  0
    0.0283    0.4503    7.1853 C   0  0  1  0  0  0  0  0  0  0  0  0
    0.0397   -0.3918    8.4627 C   0  0  1  0  0  0  0  0  0  0  0  0
    0.9249   -1.0273    8.4883 H   0  0  0  0  0  0  0  0  0  0  0  0
   -0.0008    0.5247    9.7114 C   0  0  1  0  0  0  0  0  0  0  0  0
   -0.6196   -0.4366   10.7626 C   0  0  1  0  0  0  0  0  0  0  0  0
   -1.5883   -1.2795    9.9057 C   0  0  1  0  0  0  0  0  0  0  0  0
   -1.1508   -1.1917    8.5431 O   0  0  0  0  0  0  0  0  0  0  0  0
    1.0042    1.8801    0.0026 H   0  0  0  0  0  0  0  0  0  0  0  0
   -0.5455    1.8639   -0.8728 H   0  0  0  0  0  0  0  0  0  0  0  0
   -0.5286    1.8543    0.9071 H   0  0  0  0  0  0  0  0  0  0  0  0
   -0.0060   -0.1437   -2.1299 H   0  0  0  0  0  0  0  0  0  0  0  0
    2.2055   -5.1506   -3.4804 H   0  0  0  0  0  0  0  0  0  0  0  0
    3.3885   -4.1333   -2.6237 H   0  0  0  0  0  0  0  0  0  0  0  0
    1.9272   -4.7012   -1.7808 H   0  0  0  0  0  0  0  0  0  0  0  0
    2.7652   -1.4197   -3.3404 H   0  0  0  0  0  0  0  0  0  0  0  0
    3.0557   -2.6429   -4.6005 H   0  0  0  0  0  0  0  0  0  0  0  0
    1.5700   -1.6632   -4.6367 H   0  0  0  0  0  0  0  0  0  0  0  0
    0.0529   -3.8519   -0.0233 H   0  0  0  0  0  0  0  0  0  0  0  0
    0.0473   -2.6396    2.1192 H   0  0  0  0  0  0  0  0  0  0  0  0
   -0.8535   -1.4573    3.5970 H   0  0  0  0  0  0  0  0  0  0  0  0
    0.9263   -1.4406    3.5922 H   0  0  0  0  0  0  0  0  0  0  0  0
    0.0428   -1.3965    6.1378 H   0  0  0  0  0  0  0  0  0  0  0  0
    0.9123    1.0876    7.1624 H   0  0  0  0  0  0  0  0  0  0  0  0
   -0.8676    1.0709    7.1672 H   0  0  0  0  0  0  0  0  0  0  0  0
    1.0025    0.8339   10.0044 H   0  0  0  0  0  0  0  0  0  0  0  0
   -0.6431    1.3892    9.5435 H   0  0  0  0  0  0  0  0  0  0  0  0
    0.1484   -1.0660   11.2123 H   0  0  0  0  0  0  0  0  0  0  0  0
   -1.1619    0.1209   11.5263 H   0  0  0  0  0  0  0  0  0  0  0  0
   -1.5640   -2.3186   10.2341 H   0  0  0  0  0  0  0  0  0  0  0  0
   -2.6006   -0.8854    9.9962 H   0  0  0  0  0  0  0  0  0  0  0  0
  1  2  1  0
  1 26  1  6
  1 27  1  0
  1 28  1  0
  2 13  2  0
  2  3  1  0
  3  4  2  0
  3 29  1  0
  4  5  1  0
  4 11  1  0
  5  6  2  0
  5  7  2  0
  5  8  1  6
  8  9  1  0
  8 10  1  0
  9 30  1  6
  9 31  1  0
  9 32  1  0
 10 33  1  1
 10 34  1  0
 10 35  1  0
 11 12  2  0
 11 36  1  0
 12 13  1  0
 12 37  1  0
 13 14  1  0
 14 15  1  0
 15 16  1  0
 15 38  1  1
 15 39  1  0
 16 17  2  0
 16 18  1  0
 18 19  1  0
 18 40  1  0
 19 20  1  0
 19 41  1  6
 19 42  1  0
 20 21  1  1
 20 25  1  0
 20 22  1  0
 22 23  1  0
 22 43  1  1
 22 44  1  0
 23 24  1  0
 23 45  1  1
 23 46  1  0
 24 25  1  0
 24 47  1  1
 24 48  1  0
M  END
$$$$
