ZINC000065363830
     RDKit          3D

 44 45  0  0  1  0  0  0  0  0999 V2000
    0.5261    1.0819    0.3526 C   0  0  1  0  0  0  0  0  0  0  0  0
    0.0837   -0.3653    0.1274 C   0  0  2  0  0  0  0  0  0  0  0  0
   -1.0007   -0.4316    0.2154 H   0  0  0  0  0  0  0  0  0  0  0  0
    0.7268   -1.2538    1.1609 C   0  0  0  0  0  0  0  0  0  0  0  0
    1.7023   -1.9135    0.8709 O   0  0  0  0  0  0  0  0  0  0  0  0
    0.2179   -1.3152    2.4074 N   0  0  0  0  0  0  0  0  0  0  0  0
   -0.9125   -0.4621    2.8070 C   0  0  1  0  0  0  0  0  0  0  0  0
   -1.9835   -1.3492    3.4518 C   0  0  1  0  0  0  0  0  0  0  0  0
   -1.3844   -2.1346    4.4853 O   0  0  0  0  0  0  0  0  0  0  0  0
   -0.3773   -3.0385    4.0243 C   0  0  1  0  0  0  0  0  0  0  0  0
    0.7723   -2.2419    3.4071 C   0  0  1  0  0  0  0  0  0  0  0  0
    0.4924   -0.7982   -1.2112 N   0  0  0  0  0  0  0  0  0  0  0  0
    1.8461   -0.8222   -1.5544 C   0  0  0  0  0  0  0  0  0  0  0  0
    2.4805   -2.0331   -1.8001 C   0  0  0  0  0  0  0  0  0  0  0  0
    3.8192   -2.0531   -2.1398 C   0  0  0  0  0  0  0  0  0  0  0  0
    4.5276   -0.8696   -2.2354 C   0  0  0  0  0  0  0  0  0  0  0  0
    3.8990    0.3379   -1.9910 C   0  0  0  0  0  0  0  0  0  0  0  0
    4.6752    1.6253   -2.0964 C   0  0  1  0  0  0  0  0  0  0  0  0
    5.9989    1.3441   -2.4513 F   0  0  0  0  0  0  0  0  0  0  0  0
    4.0940    2.4416   -3.0727 F   0  0  0  0  0  0  0  0  0  0  0  0
    4.6532    2.2855   -0.8631 F   0  0  0  0  0  0  0  0  0  0  0  0
    2.5596    0.3656   -1.6565 C   0  0  0  0  0  0  0  0  0  0  0  0
   -0.6506   -1.2591   -2.3173 S   0  0  1  0  0  0  0  0  0  0  0  0
   -0.9991    0.2489   -3.2633 C   0  0  1  0  0  0  0  0  0  0  0  0
    0.0147   -2.2155   -3.1308 O   0  0  0  0  0  0  0  0  0  0  0  0
   -1.7748   -1.6238   -1.5283 O   0  0  0  0  0  0  0  0  0  0  0  0
    1.6146    1.1280    0.3869 H   0  0  0  0  0  0  0  0  0  0  0  0
    0.1616    1.7046   -0.4644 H   0  0  0  0  0  0  0  0  0  0  0  0
    0.1172    1.4442    1.2959 H   0  0  0  0  0  0  0  0  0  0  0  0
   -0.5731    0.2845    3.5251 H   0  0  0  0  0  0  0  0  0  0  0  0
   -1.3264    0.0339    1.9290 H   0  0  0  0  0  0  0  0  0  0  0  0
   -2.7668   -0.7226    3.8784 H   0  0  0  0  0  0  0  0  0  0  0  0
   -2.4135   -2.0077    2.6971 H   0  0  0  0  0  0  0  0  0  0  0  0
   -0.0051   -3.6272    4.8627 H   0  0  0  0  0  0  0  0  0  0  0  0
   -0.8015   -3.7031    3.2717 H   0  0  0  0  0  0  0  0  0  0  0  0
    1.4755   -2.9232    2.9281 H   0  0  0  0  0  0  0  0  0  0  0  0
    1.2830   -1.6726    4.1838 H   0  0  0  0  0  0  0  0  0  0  0  0
    1.9278   -2.9579   -1.7252 H   0  0  0  0  0  0  0  0  0  0  0  0
    4.3132   -2.9944   -2.3306 H   0  0  0  0  0  0  0  0  0  0  0  0
    5.5742   -0.8881   -2.5012 H   0  0  0  0  0  0  0  0  0  0  0  0
    2.0693    1.3088   -1.4658 H   0  0  0  0  0  0  0  0  0  0  0  0
   -0.0630    0.6783   -3.6203 H   0  0  0  0  0  0  0  0  0  0  0  0
   -1.6349    0.0051   -4.1144 H   0  0  0  0  0  0  0  0  0  0  0  0
   -1.5087    0.9695   -2.6236 H   0  0  0  0  0  0  0  0  0  0  0  0
  1  2  1  0
  1 27  1  1
  1 28  1  0
  1 29  1  0
  2  3  1  6
  2  4  1  0
  2 12  1  0
  4  5  2  0
  4  6  1  0
  6 11  1  0
  6  7  1  0
  7  8  1  0
  7 30  1  1
  7 31  1  0
  8  9  1  0
  8 32  1  1
  8 33  1  0
  9 10  1  0
 10 11  1  0
 10 34  1  1
 10 35  1  0
 11 36  1  6
 11 37  1  0
 12 13  1  0
 23 12  1  1
 13 22  2  0
 13 14  1  0
 14 15  2  0
 14 38  1  0
 15 16  1  0
 15 39  1  0
 16 17  2  0
 16 40  1  0
 17 18  1  0
 17 22  1  0
 18 19  1  6
 18 20  1  0
 18 21  1  0
 22 41  1  0
 23 24  1  0
 23 25  2  0
 23 26  2  0
 24 42  1  6
 24 43  1  0
 24 44  1  0
M  END
$$$$
