ZINC000015386087
     RDKit          3D

 47 49  0  0  1  0  0  0  0  0999 V2000
   -0.0187    1.5258    0.0104 C   0  0  1  0  0  0  0  0  0  0  0  0
    0.0021   -0.0041    0.0020 C   0  0  2  0  0  0  0  0  0  0  0  0
    0.0748   -0.4678   -0.9817 H   0  0  0  0  0  0  0  0  0  0  0  0
   -0.8275   -0.7277    1.0646 C   0  0  1  0  0  0  0  0  0  0  0  0
    0.6996   -0.7075    1.1680 C   0  0  2  0  0  0  0  0  0  0  0  0
    1.2309   -1.6343    0.9515 H   0  0  0  0  0  0  0  0  0  0  0  0
    1.3132    0.1589    2.2375 C   0  0  0  0  0  0  0  0  0  0  0  0
    1.2430    1.3668    2.1537 O   0  0  0  0  0  0  0  0  0  0  0  0
    1.9400   -0.4085    3.2871 N   0  0  0  0  0  0  0  0  0  0  0  0
    2.0381   -1.8706    3.3986 C   0  0  1  0  0  0  0  0  0  0  0  0
    3.5161   -2.2529    3.5452 C   0  0  1  0  0  0  0  0  0  0  0  0
    4.1142   -1.4205    4.5984 N   0  0  0  0  0  0  0  0  0  0  0  0
    4.8854   -2.1176    5.8875 S   0  0  1  0  0  0  0  0  0  0  0  0
    4.8493   -1.1639    6.9403 O   0  0  0  0  0  0  0  0  0  0  0  0
    4.3558   -3.4306    6.0097 O   0  0  0  0  0  0  0  0  0  0  0  0
    6.5801   -2.3041    5.4429 C   0  0  0  0  0  0  0  0  0  0  0  0
    7.0074   -3.4606    4.8177 C   0  0  0  0  0  0  0  0  0  0  0  0
    8.3370   -3.6069    4.4688 C   0  0  0  0  0  0  0  0  0  0  0  0
    8.8030   -4.8678    3.7877 C   0  0  1  0  0  0  0  0  0  0  0  0
    8.6984   -4.7147    2.4010 F   0  0  0  0  0  0  0  0  0  0  0  0
   10.1363   -5.1175    4.1301 F   0  0  0  0  0  0  0  0  0  0  0  0
    8.0068   -5.9419    4.1996 F   0  0  0  0  0  0  0  0  0  0  0  0
    9.2391   -2.5964    4.7444 C   0  0  0  0  0  0  0  0  0  0  0  0
    8.8117   -1.4397    5.3692 C   0  0  0  0  0  0  0  0  0  0  0  0
    9.7952   -0.3382    5.6701 C   0  0  1  0  0  0  0  0  0  0  0  0
   11.0675   -0.7152    5.2268 F   0  0  0  0  0  0  0  0  0  0  0  0
    9.4002    0.8320    5.0130 F   0  0  0  0  0  0  0  0  0  0  0  0
    9.8310   -0.1090    7.0497 F   0  0  0  0  0  0  0  0  0  0  0  0
    7.4813   -1.2916    5.7142 C   0  0  0  0  0  0  0  0  0  0  0  0
    4.0162    0.0416    4.4869 C   0  0  1  0  0  0  0  0  0  0  0  0
    2.5430    0.4240    4.3374 C   0  0  1  0  0  0  0  0  0  0  0  0
    1.0039    1.9031    0.0027 H   0  0  0  0  0  0  0  0  0  0  0  0
   -0.5459    1.8868   -0.8726 H   0  0  0  0  0  0  0  0  0  0  0  0
   -0.5289    1.8773    0.9072 H   0  0  0  0  0  0  0  0  0  0  0  0
   -1.3881   -0.1139    1.7696 H   0  0  0  0  0  0  0  0  0  0  0  0
   -1.3003   -1.6677    0.7800 H   0  0  0  0  0  0  0  0  0  0  0  0
    1.4842   -2.2087    4.2744 H   0  0  0  0  0  0  0  0  0  0  0  0
    1.6275   -2.3342    2.5016 H   0  0  0  0  0  0  0  0  0  0  0  0
    3.5965   -3.3045    3.8202 H   0  0  0  0  0  0  0  0  0  0  0  0
    4.0344   -2.0782    2.6023 H   0  0  0  0  0  0  0  0  0  0  0  0
    6.3026   -4.2499    4.6020 H   0  0  0  0  0  0  0  0  0  0  0  0
   10.2779   -2.7107    4.4719 H   0  0  0  0  0  0  0  0  0  0  0  0
    7.1474   -0.3880    6.2023 H   0  0  0  0  0  0  0  0  0  0  0  0
    4.4267    0.5053    5.3839 H   0  0  0  0  0  0  0  0  0  0  0  0
    4.5701    0.3797    3.6111 H   0  0  0  0  0  0  0  0  0  0  0  0
    2.4641    1.4758    4.0625 H   0  0  0  0  0  0  0  0  0  0  0  0
    2.0224    0.2495    5.2791 H   0  0  0  0  0  0  0  0  0  0  0  0
  1  2  1  0
  1 32  1  6
  1 33  1  0
  1 34  1  0
  2  3  1  6
  2  5  1  0
  2  4  1  0
  4  5  1  0
  4 35  1  1
  4 36  1  0
  5  6  1  6
  5  7  1  0
  7  8  2  0
  7  9  1  0
  9 31  1  0
  9 10  1  0
 10 11  1  0
 10 37  1  1
 10 38  1  0
 11 12  1  0
 11 39  1  1
 11 40  1  0
 13 12  1  6
 12 30  1  0
 13 14  2  0
 13 15  2  0
 13 16  1  0
 16 29  2  0
 16 17  1  0
 17 18  2  0
 17 41  1  0
 18 19  1  0
 18 23  1  0
 19 20  1  6
 19 21  1  0
 19 22  1  0
 23 24  2  0
 23 42  1  0
 24 25  1  0
 24 29  1  0
 25 26  1  6
 25 27  1  0
 25 28  1  0
 29 43  1  0
 30 31  1  0
 30 44  1  1
 30 45  1  0
 31 46  1  6
 31 47  1  0
M  END
$$$$
