ZINC000514288578
     RDKit          3D

 39 41  0  0  1  0  0  0  0  0999 V2000
   -0.5482    1.2950   -0.0674 C   0  0  1  0  0  0  0  0  0  0  0  0
   -0.4732   -0.1665   -0.0004 N   0  0  0  0  0  0  0  0  0  0  0  0
   -0.6407   -0.8664   -1.1432 C   0  0  0  0  0  0  0  0  0  0  0  0
   -0.7287   -0.3029   -2.2170 O   0  0  0  0  0  0  0  0  0  0  0  0
   -0.7135   -2.3496   -1.0460 C   0  0  0  0  0  0  0  0  0  0  0  0
    0.0864   -3.1864   -1.8086 C   0  0  0  0  0  0  0  0  0  0  0  0
   -0.1035   -4.5537   -1.7176 C   0  0  0  0  0  0  0  0  0  0  0  0
    0.7571   -5.4901   -2.5260 C   0  0  1  0  0  0  0  0  0  0  0  0
    1.8934   -5.8349   -1.7863 F   0  0  0  0  0  0  0  0  0  0  0  0
    0.0302   -6.6461   -2.8301 F   0  0  0  0  0  0  0  0  0  0  0  0
    1.1467   -4.8587   -3.7121 F   0  0  0  0  0  0  0  0  0  0  0  0
   -1.0852   -5.0612   -0.8824 C   0  0  0  0  0  0  0  0  0  0  0  0
   -1.8598   -4.2258   -0.1016 C   0  0  0  0  0  0  0  0  0  0  0  0
   -1.6505   -2.8508   -0.1485 C   0  0  0  0  0  0  0  0  0  0  0  0
   -2.2375   -2.0524    0.7642 O   0  0  0  0  0  0  0  0  0  0  0  0
   -1.4329   -1.5773    1.8320 C   0  0  1  0  0  0  0  0  0  0  0  0
   -2.0248   -0.9569    2.5049 H   0  0  0  0  0  0  0  0  0  0  0  0
   -0.7962   -2.7474    2.6032 C   0  0  1  0  0  0  0  0  0  0  0  0
    0.4590   -3.0560    1.9005 N   0  0  0  0  0  0  0  0  0  0  0  0
    1.2645   -4.5018    1.9578 S   0  0  1  0  0  0  0  0  0  0  0  0
    2.2785   -4.3959    3.4582 C   0  0  1  0  0  0  0  0  0  0  0  0
    0.2364   -5.4696    2.1180 O   0  0  0  0  0  0  0  0  0  0  0  0
    2.0864   -4.4911    0.7987 O   0  0  0  0  0  0  0  0  0  0  0  0
    0.8801   -1.8742    1.1406 C   0  0  1  0  0  0  0  0  0  0  0  0
   -0.2181   -0.7787    1.2849 C   0  0  1  0  0  0  0  0  0  0  0  0
    0.0993   -0.0260    2.0066 H   0  0  0  0  0  0  0  0  0  0  0  0
    0.4440    1.7011   -0.2638 H   0  0  0  0  0  0  0  0  0  0  0  0
   -1.2259    1.5876   -0.8694 H   0  0  0  0  0  0  0  0  0  0  0  0
   -0.9186    1.6837    0.8812 H   0  0  0  0  0  0  0  0  0  0  0  0
    0.8436   -2.7784   -2.4618 H   0  0  0  0  0  0  0  0  0  0  0  0
   -1.2478   -6.1281   -0.8414 H   0  0  0  0  0  0  0  0  0  0  0  0
   -2.6236   -4.6373    0.5416 H   0  0  0  0  0  0  0  0  0  0  0  0
   -0.5884   -2.4511    3.6314 H   0  0  0  0  0  0  0  0  0  0  0  0
   -1.4586   -3.6128    2.5873 H   0  0  0  0  0  0  0  0  0  0  0  0
    1.6302   -4.2914    4.3282 H   0  0  0  0  0  0  0  0  0  0  0  0
    2.8764   -5.3018    3.5573 H   0  0  0  0  0  0  0  0  0  0  0  0
    2.9381   -3.5307    3.3906 H   0  0  0  0  0  0  0  0  0  0  0  0
    1.8232   -1.4982    1.5371 H   0  0  0  0  0  0  0  0  0  0  0  0
    1.0012   -2.1362    0.0895 H   0  0  0  0  0  0  0  0  0  0  0  0
  1  2  1  0
  1 27  1  6
  1 28  1  0
  1 29  1  0
  2 25  1  0
  2  3  1  0
  3  4  2  0
  3  5  1  0
  5 14  2  0
  5  6  1  0
  6  7  2  0
  6 30  1  0
  7  8  1  0
  7 12  1  0
  8  9  1  1
  8 10  1  0
  8 11  1  0
 12 13  2  0
 12 31  1  0
 13 14  1  0
 13 32  1  0
 14 15  1  0
 15 16  1  0
 16 17  1  1
 16 25  1  0
 16 18  1  0
 18 19  1  0
 18 33  1  1
 18 34  1  0
 20 19  1  6
 19 24  1  0
 20 21  1  0
 20 22  2  0
 20 23  2  0
 21 35  1  1
 21 36  1  0
 21 37  1  0
 24 25  1  0
 24 38  1  1
 24 39  1  0
 25 26  1  1
M  END
$$$$
