ZINC000012821192
     RDKit          3D

 56 59  0  0  1  0  0  0  0  0999 V2000
    0.0021   -0.0041    0.0020 O   0  0  0  0  0  0  0  0  0  0  0  0
   -0.0144    1.2086    0.0087 C   0  0  0  0  0  0  0  0  0  0  0  0
    1.1435    1.8983    0.0013 N   0  0  0  0  0  0  0  0  0  0  0  0
    2.4220    1.1832   -0.0147 C   0  0  1  0  0  0  0  0  0  0  0  0
    3.5092    1.7007   -0.9587 C   0  0  1  0  0  0  0  0  0  0  0  0
    3.6445    1.9087    0.5511 C   0  0  1  0  0  0  0  0  0  0  0  0
   -1.3296    1.9443    0.0189 C   0  0  1  0  0  0  0  0  0  0  0  0
   -1.3916    2.5653    0.9126 H   0  0  0  0  0  0  0  0  0  0  0  0
   -1.4270    2.8162   -1.2064 C   0  0  0  0  0  0  0  0  0  0  0  0
   -1.7907    2.2641   -2.4204 C   0  0  0  0  0  0  0  0  0  0  0  0
   -1.8801    3.0639   -3.5443 C   0  0  0  0  0  0  0  0  0  0  0  0
   -1.6061    4.4158   -3.4542 C   0  0  0  0  0  0  0  0  0  0  0  0
   -1.2433    4.9681   -2.2400 C   0  0  0  0  0  0  0  0  0  0  0  0
   -1.1581    4.1691   -1.1151 C   0  0  0  0  0  0  0  0  0  0  0  0
   -2.4331    0.9746    0.0189 N   0  0  0  0  0  0  0  0  0  0  0  0
   -3.7073    1.6272   -0.3103 C   0  0  1  0  0  0  0  0  0  0  0  0
   -4.7951    0.5610   -0.4779 C   0  0  1  0  0  0  0  0  0  0  0  0
   -4.8192   -0.2760    0.7313 N   0  0  0  0  0  0  0  0  0  0  0  0
   -6.2360   -0.5603    1.5401 S   0  0  1  0  0  0  0  0  0  0  0  0
   -5.8769   -0.8884    2.8753 O   0  0  0  0  0  0  0  0  0  0  0  0
   -7.1081    0.5122    1.2110 O   0  0  0  0  0  0  0  0  0  0  0  0
   -6.9504   -2.0135    0.8456 C   0  0  0  0  0  0  0  0  0  0  0  0
   -7.8160   -1.9132   -0.2275 C   0  0  0  0  0  0  0  0  0  0  0  0
   -8.3765   -3.0532   -0.7724 C   0  0  0  0  0  0  0  0  0  0  0  0
   -8.0712   -4.2938   -0.2444 C   0  0  0  0  0  0  0  0  0  0  0  0
   -8.6826   -5.5366   -0.8381 C   0  0  1  0  0  0  0  0  0  0  0  0
   -7.8537   -6.0247   -1.8539 F   0  0  0  0  0  0  0  0  0  0  0  0
   -8.8220   -6.5092    0.1578 F   0  0  0  0  0  0  0  0  0  0  0  0
   -9.9399   -5.2297   -1.3694 F   0  0  0  0  0  0  0  0  0  0  0  0
   -7.2045   -4.3943    0.8278 C   0  0  0  0  0  0  0  0  0  0  0  0
   -6.6410   -3.2545    1.3703 C   0  0  0  0  0  0  0  0  0  0  0  0
   -3.5516   -0.8542    1.2027 C   0  0  1  0  0  0  0  0  0  0  0  0
   -2.5128    0.2678    1.3042 C   0  0  1  0  0  0  0  0  0  0  0  0
    1.1304    2.8682    0.0067 H   0  0  0  0  0  0  0  0  0  0  0  0
    2.3601    0.1059    0.1395 H   0  0  0  0  0  0  0  0  0  0  0  0
    4.1627    0.9640   -1.4258 H   0  0  0  0  0  0  0  0  0  0  0  0
    3.2732    2.5734   -1.5677 H   0  0  0  0  0  0  0  0  0  0  0  0
    3.4975    2.9181    0.9353 H   0  0  0  0  0  0  0  0  0  0  0  0
    4.3869    1.3087    1.0772 H   0  0  0  0  0  0  0  0  0  0  0  0
   -2.0047    1.2079   -2.4908 H   0  0  0  0  0  0  0  0  0  0  0  0
   -2.1636    2.6325   -4.4929 H   0  0  0  0  0  0  0  0  0  0  0  0
   -1.6752    5.0406   -4.3324 H   0  0  0  0  0  0  0  0  0  0  0  0
   -1.0289    6.0243   -2.1696 H   0  0  0  0  0  0  0  0  0  0  0  0
   -0.8746    4.6005   -0.1665 H   0  0  0  0  0  0  0  0  0  0  0  0
   -3.9859    2.3078    0.4942 H   0  0  0  0  0  0  0  0  0  0  0  0
   -3.6000    2.1866   -1.2396 H   0  0  0  0  0  0  0  0  0  0  0  0
   -5.7637    1.0435   -0.6086 H   0  0  0  0  0  0  0  0  0  0  0  0
   -4.5708   -0.0575   -1.3470 H   0  0  0  0  0  0  0  0  0  0  0  0
   -8.0546   -0.9440   -0.6400 H   0  0  0  0  0  0  0  0  0  0  0  0
   -9.0533   -2.9747   -1.6104 H   0  0  0  0  0  0  0  0  0  0  0  0
   -6.9657   -5.3635    1.2401 H   0  0  0  0  0  0  0  0  0  0  0  0
   -5.9639   -3.3330    2.2080 H   0  0  0  0  0  0  0  0  0  0  0  0
   -3.6981   -1.3073    2.1832 H   0  0  0  0  0  0  0  0  0  0  0  0
   -3.2078   -1.6087    0.4953 H   0  0  0  0  0  0  0  0  0  0  0  0
   -1.5392   -0.1587    1.5457 H   0  0  0  0  0  0  0  0  0  0  0  0
   -2.8081    0.9673    2.0862 H   0  0  0  0  0  0  0  0  0  0  0  0
  1  2  2  0
  2  3  1  0
  2  7  1  0
  3  4  1  0
  3 34  1  0
  4  6  1  0
  4  5  1  0
  4 35  1  1
  5  6  1  0
  5 36  1  6
  5 37  1  0
  6 38  1  6
  6 39  1  0
  7  8  1  1
  7  9  1  0
  7 15  1  0
  9 14  2  0
  9 10  1  0
 10 11  2  0
 10 40  1  0
 11 12  1  0
 11 41  1  0
 12 13  2  0
 12 42  1  0
 13 14  1  0
 13 43  1  0
 14 44  1  0
 15 33  1  0
 15 16  1  0
 16 17  1  0
 16 45  1  1
 16 46  1  0
 17 18  1  0
 17 47  1  6
 17 48  1  0
 19 18  1  6
 18 32  1  0
 19 20  2  0
 19 21  2  0
 19 22  1  0
 22 31  2  0
 22 23  1  0
 23 24  2  0
 23 49  1  0
 24 25  1  0
 24 50  1  0
 25 26  1  0
 25 30  2  0
 26 27  1  6
 26 28  1  0
 26 29  1  0
 30 31  1  0
 30 51  1  0
 31 52  1  0
 32 33  1  0
 32 53  1  1
 32 54  1  0
 33 55  1  1
 33 56  1  0
M  END
$$$$
