ZINC000161799664
     RDKit          3D

 37 38  0  0  1  0  0  0  0  0999 V2000
   -0.0187    1.5258    0.0104 C   0  0  1  0  0  0  0  0  0  0  0  0
    0.0021   -0.0041    0.0020 C   0  0  2  0  0  0  0  0  0  0  0  0
    0.6695   -0.4656   -1.1742 O   0  0  0  0  0  0  0  0  0  0  0  0
   -1.4334   -0.5345    0.0169 C   0  0  1  0  0  0  0  0  0  0  0  0
   -1.4143   -2.0642   -0.0246 C   0  0  1  0  0  0  0  0  0  0  0  0
   -0.6895   -2.5957    1.2160 C   0  0  1  0  0  0  0  0  0  0  0  0
    0.6414   -1.9773    1.2874 N   0  0  0  0  0  0  0  0  0  0  0  0
    2.0011   -2.9138    1.4150 S   0  0  1  0  0  0  0  0  0  0  0  0
    3.0007   -2.0920    2.0022 O   0  0  0  0  0  0  0  0  0  0  0  0
    1.5848   -4.1516    1.9752 O   0  0  0  0  0  0  0  0  0  0  0  0
    2.5466   -3.2672   -0.2227 C   0  0  0  0  0  0  0  0  0  0  0  0
    2.0780   -4.3893   -0.8802 C   0  0  0  0  0  0  0  0  0  0  0  0
    2.5060   -4.6666   -2.1651 C   0  0  0  0  0  0  0  0  0  0  0  0
    3.4021   -3.8216   -2.7926 C   0  0  0  0  0  0  0  0  0  0  0  0
    3.8690   -4.1242   -4.1932 C   0  0  1  0  0  0  0  0  0  0  0  0
    3.0094   -3.5144   -5.1132 F   0  0  0  0  0  0  0  0  0  0  0  0
    5.1663   -3.6308   -4.3691 F   0  0  0  0  0  0  0  0  0  0  0  0
    3.8648   -5.5082   -4.3973 F   0  0  0  0  0  0  0  0  0  0  0  0
    3.8696   -2.6988   -2.1356 C   0  0  0  0  0  0  0  0  0  0  0  0
    3.4387   -2.4194   -0.8522 C   0  0  0  0  0  0  0  0  0  0  0  0
    0.7429   -0.5122    1.2429 C   0  0  1  0  0  0  0  0  0  0  0  0
    1.0039    1.9031    0.0027 H   0  0  0  0  0  0  0  0  0  0  0  0
   -0.5459    1.8868   -0.8726 H   0  0  0  0  0  0  0  0  0  0  0  0
   -0.5289    1.8773    0.9072 H   0  0  0  0  0  0  0  0  0  0  0  0
    0.2534   -0.1815   -1.9996 H   0  0  0  0  0  0  0  0  0  0  0  0
   -1.9339   -0.2021    0.9264 H   0  0  0  0  0  0  0  0  0  0  0  0
   -1.9701   -0.1543   -0.8523 H   0  0  0  0  0  0  0  0  0  0  0  0
   -2.4371   -2.4406   -0.0375 H   0  0  0  0  0  0  0  0  0  0  0  0
   -0.8922   -2.3973   -0.9216 H   0  0  0  0  0  0  0  0  0  0  0  0
   -1.2594   -2.3405    2.1094 H   0  0  0  0  0  0  0  0  0  0  0  0
   -0.5859   -3.6783    1.1429 H   0  0  0  0  0  0  0  0  0  0  0  0
    1.3779   -5.0495   -0.3900 H   0  0  0  0  0  0  0  0  0  0  0  0
    2.1404   -5.5437   -2.6785 H   0  0  0  0  0  0  0  0  0  0  0  0
    4.5695   -2.0384   -2.6261 H   0  0  0  0  0  0  0  0  0  0  0  0
    3.8040   -1.5422   -0.3389 H   0  0  0  0  0  0  0  0  0  0  0  0
    1.7916   -0.2201    1.1875 H   0  0  0  0  0  0  0  0  0  0  0  0
    0.2898   -0.0872    2.1385 H   0  0  0  0  0  0  0  0  0  0  0  0
  1 22  1  6
  1 23  1  0
  1 24  1  0
  2  1  1  0
  2 21  1  0
  2  3  1  6
  2  4  1  0
  3 25  1  0
  4  5  1  0
  4 26  1  1
  4 27  1  0
  5  6  1  0
  5 28  1  6
  5 29  1  0
  6  7  1  0
  6 30  1  1
  6 31  1  0
  8  7  1  6
  7 21  1  0
  8  9  2  0
  8 10  2  0
  8 11  1  0
 11 20  2  0
 11 12  1  0
 12 13  2  0
 12 32  1  0
 13 14  1  0
 13 33  1  0
 14 15  1  0
 14 19  2  0
 15 16  1  6
 15 17  1  0
 15 18  1  0
 19 20  1  0
 19 34  1  0
 20 35  1  0
 21 36  1  6
 21 37  1  0
M  END
$$$$
