ZINC000362127835
     RDKit          3D

 34 35  0  0  1  0  0  0  0  0999 V2000
   -0.0173    1.4248    0.0099 C   0  0  1  0  0  0  0  0  0  0  0  0
    0.0021   -0.0041    0.0020 O   0  0  0  0  0  0  0  0  0  0  0  0
    0.6518   -0.5703   -1.1379 C   0  0  2  0  0  0  0  0  0  0  0  0
    1.4280    0.0987   -1.5094 H   0  0  0  0  0  0  0  0  0  0  0  0
   -0.3775   -0.8903   -2.2538 C   0  0  1  0  0  0  0  0  0  0  0  0
   -0.9169   -2.2677   -1.7938 C   0  0  1  0  0  0  0  0  0  0  0  0
    0.2549   -2.9628   -1.2307 N   0  0  0  0  0  0  0  0  0  0  0  0
    0.4352   -4.6042   -1.1054 S   0  0  1  0  0  0  0  0  0  0  0  0
    1.3744   -4.8263   -0.0624 O   0  0  0  0  0  0  0  0  0  0  0  0
   -0.8756   -5.1527   -1.1008 O   0  0  0  0  0  0  0  0  0  0  0  0
    1.2017   -5.1596   -2.5916 C   0  0  0  0  0  0  0  0  0  0  0  0
    0.4249   -5.5284   -3.6739 C   0  0  0  0  0  0  0  0  0  0  0  0
    1.0262   -5.9642   -4.8398 C   0  0  0  0  0  0  0  0  0  0  0  0
    2.4044   -6.0306   -4.9237 C   0  0  0  0  0  0  0  0  0  0  0  0
    3.0599   -6.5061   -6.1946 C   0  0  1  0  0  0  0  0  0  0  0  0
    3.2954   -5.4128   -7.0351 F   0  0  0  0  0  0  0  0  0  0  0  0
    4.2746   -7.1288   -5.8880 F   0  0  0  0  0  0  0  0  0  0  0  0
    2.2183   -7.4181   -6.8404 F   0  0  0  0  0  0  0  0  0  0  0  0
    3.1813   -5.6605   -3.8419 C   0  0  0  0  0  0  0  0  0  0  0  0
    2.5801   -5.2211   -2.6772 C   0  0  0  0  0  0  0  0  0  0  0  0
    1.2415   -1.9554   -0.7982 C   0  0  1  0  0  0  0  0  0  0  0  0
    1.0053    1.8021    0.0021 H   0  0  0  0  0  0  0  0  0  0  0  0
   -0.5445    1.7859   -0.8732 H   0  0  0  0  0  0  0  0  0  0  0  0
   -0.5275    1.7763    0.9067 H   0  0  0  0  0  0  0  0  0  0  0  0
   -1.1739   -0.1464   -2.2757 H   0  0  0  0  0  0  0  0  0  0  0  0
    0.1106   -0.9665   -3.2254 H   0  0  0  0  0  0  0  0  0  0  0  0
   -1.6845   -2.1389   -1.0308 H   0  0  0  0  0  0  0  0  0  0  0  0
   -1.3147   -2.8223   -2.6436 H   0  0  0  0  0  0  0  0  0  0  0  0
   -0.6519   -5.4765   -3.6084 H   0  0  0  0  0  0  0  0  0  0  0  0
    0.4192   -6.2530   -5.6851 H   0  0  0  0  0  0  0  0  0  0  0  0
    4.2581   -5.7120   -3.9075 H   0  0  0  0  0  0  0  0  0  0  0  0
    3.1870   -4.9319   -1.8320 H   0  0  0  0  0  0  0  0  0  0  0  0
    2.1801   -2.1026   -1.3323 H   0  0  0  0  0  0  0  0  0  0  0  0
    1.4072   -2.0362    0.2761 H   0  0  0  0  0  0  0  0  0  0  0  0
  1  2  1  0
  1 22  1  6
  1 23  1  0
  1 24  1  0
  2  3  1  0
  3  4  1  6
  3 21  1  0
  3  5  1  0
  5  6  1  0
  5 25  1  6
  5 26  1  0
  6  7  1  0
  6 27  1  1
  6 28  1  0
  8  7  1  6
  7 21  1  0
  8  9  2  0
  8 10  2  0
  8 11  1  0
 11 20  2  0
 11 12  1  0
 12 13  2  0
 12 29  1  0
 13 14  1  0
 13 30  1  0
 14 15  1  0
 14 19  2  0
 15 16  1  6
 15 17  1  0
 15 18  1  0
 19 20  1  0
 19 31  1  0
 20 32  1  0
 21 33  1  6
 21 34  1  0
M  END
$$$$
