ZINC000408618781
     RDKit          3D

 56 57  0  0  1  0  0  0  0  0999 V2000
   -0.0173    1.4248    0.0099 C   0  0  1  0  0  0  0  0  0  0  0  0
    0.0021   -0.0041    0.0020 O   0  0  0  0  0  0  0  0  0  0  0  0
   -1.2953   -0.6030    0.0112 C   0  0  1  0  0  0  0  0  0  0  0  0
   -1.1538   -2.1264    0.0017 C   0  0  1  0  0  0  0  0  0  0  0  0
   -2.1404   -2.5824   -0.0809 H   0  0  0  0  0  0  0  0  0  0  0  0
   -0.2942   -2.5513   -1.1905 C   0  0  1  0  0  0  0  0  0  0  0  0
   -0.5155   -2.5654    1.2451 N   0  0  0  0  0  0  0  0  0  0  0  0
   -0.7243   -3.8149    1.7051 C   0  0  0  0  0  0  0  0  0  0  0  0
   -1.4405   -4.5759    1.0897 O   0  0  0  0  0  0  0  0  0  0  0  0
   -0.0677   -4.2664    2.9842 C   0  0  1  0  0  0  0  0  0  0  0  0
   -0.4493   -5.6524    3.2662 N   0  0  0  0  0  0  0  0  0  0  0  0
    0.2977   -6.7561    2.6579 C   0  0  1  0  0  0  0  0  0  0  0  0
    1.5065   -7.0696    3.5014 C   0  0  0  0  0  0  0  0  0  0  0  0
    2.7046   -6.4239    3.2592 C   0  0  0  0  0  0  0  0  0  0  0  0
    3.8135   -6.7113    4.0329 C   0  0  0  0  0  0  0  0  0  0  0  0
    3.7242   -7.6442    5.0491 C   0  0  0  0  0  0  0  0  0  0  0  0
    4.9332   -7.9580    5.8923 C   0  0  1  0  0  0  0  0  0  0  0  0
    2.5258   -8.2889    5.2922 C   0  0  0  0  0  0  0  0  0  0  0  0
    1.4159   -7.9986    4.5210 C   0  0  0  0  0  0  0  0  0  0  0  0
   -1.7252   -5.9715    4.2725 S   0  0  1  0  0  0  0  0  0  0  0  0
   -1.5163   -7.2813    4.7824 O   0  0  0  0  0  0  0  0  0  0  0  0
   -1.8762   -4.8289    5.1037 O   0  0  0  0  0  0  0  0  0  0  0  0
   -3.1723   -6.0525    3.2705 C   0  0  0  0  0  0  0  0  0  0  0  0
   -3.9091   -4.9086    3.0267 C   0  0  0  0  0  0  0  0  0  0  0  0
   -5.0444   -4.9722    2.2406 C   0  0  0  0  0  0  0  0  0  0  0  0
   -5.4426   -6.1796    1.6979 C   0  0  0  0  0  0  0  0  0  0  0  0
   -6.6805   -6.2490    0.8412 C   0  0  1  0  0  0  0  0  0  0  0  0
   -4.7050   -7.3232    1.9405 C   0  0  0  0  0  0  0  0  0  0  0  0
   -3.5675   -7.2590    2.7235 C   0  0  0  0  0  0  0  0  0  0  0  0
    1.0053    1.8021    0.0021 H   0  0  0  0  0  0  0  0  0  0  0  0
   -0.5445    1.7859   -0.8732 H   0  0  0  0  0  0  0  0  0  0  0  0
   -0.5275    1.7763    0.9067 H   0  0  0  0  0  0  0  0  0  0  0  0
   -1.8320   -0.2936    0.9080 H   0  0  0  0  0  0  0  0  0  0  0  0
   -1.8490   -0.2840   -0.8718 H   0  0  0  0  0  0  0  0  0  0  0  0
   -0.1934   -3.6366   -1.1973 H   0  0  0  0  0  0  0  0  0  0  0  0
   -0.7691   -2.2247   -2.1157 H   0  0  0  0  0  0  0  0  0  0  0  0
    0.6924   -2.0953   -1.1079 H   0  0  0  0  0  0  0  0  0  0  0  0
    0.0573   -1.9567    1.7373 H   0  0  0  0  0  0  0  0  0  0  0  0
    1.0153   -4.2020    2.8790 H   0  0  0  0  0  0  0  0  0  0  0  0
   -0.3918   -3.6262    3.8046 H   0  0  0  0  0  0  0  0  0  0  0  0
   -0.3412   -7.6372    2.5970 H   0  0  0  0  0  0  0  0  0  0  0  0
    0.6180   -6.4696    1.6562 H   0  0  0  0  0  0  0  0  0  0  0  0
    2.7743   -5.6951    2.4652 H   0  0  0  0  0  0  0  0  0  0  0  0
    4.7497   -6.2074    3.8432 H   0  0  0  0  0  0  0  0  0  0  0  0
    4.9583   -7.2909    6.7539 H   0  0  0  0  0  0  0  0  0  0  0  0
    4.8793   -8.9915    6.2343 H   0  0  0  0  0  0  0  0  0  0  0  0
    5.8365   -7.8185    5.2983 H   0  0  0  0  0  0  0  0  0  0  0  0
    2.4560   -9.0174    6.0864 H   0  0  0  0  0  0  0  0  0  0  0  0
    0.4796   -8.5023    4.7109 H   0  0  0  0  0  0  0  0  0  0  0  0
   -3.5980   -3.9653    3.4507 H   0  0  0  0  0  0  0  0  0  0  0  0
   -5.6205   -4.0786    2.0507 H   0  0  0  0  0  0  0  0  0  0  0  0
   -6.4112   -6.0773   -0.2009 H   0  0  0  0  0  0  0  0  0  0  0  0
   -7.1367   -7.2338    0.9411 H   0  0  0  0  0  0  0  0  0  0  0  0
   -7.3889   -5.4860    1.1639 H   0  0  0  0  0  0  0  0  0  0  0  0
   -5.0158   -8.2665    1.5162 H   0  0  0  0  0  0  0  0  0  0  0  0
   -2.9913   -8.1525    2.9131 H   0  0  0  0  0  0  0  0  0  0  0  0
  1  2  1  0
  1 30  1  6
  1 31  1  0
  1 32  1  0
  2  3  1  0
  3  4  1  0
  3 33  1  1
  3 34  1  0
  4  5  1  6
  4  6  1  0
  4  7  1  0
  6 35  1  6
  6 36  1  0
  6 37  1  0
  7  8  1  0
  7 38  1  0
  8  9  2  0
  8 10  1  0
 10 11  1  0
 10 39  1  6
 10 40  1  0
 11 12  1  0
 20 11  1  6
 12 13  1  0
 12 41  1  6
 12 42  1  0
 13 19  2  0
 13 14  1  0
 14 15  2  0
 14 43  1  0
 15 16  1  0
 15 44  1  0
 16 17  1  0
 16 18  2  0
 17 45  1  1
 17 46  1  0
 17 47  1  0
 18 19  1  0
 18 48  1  0
 19 49  1  0
 20 21  2  0
 20 22  2  0
 20 23  1  0
 23 29  2  0
 23 24  1  0
 24 25  2  0
 24 50  1  0
 25 26  1  0
 25 51  1  0
 26 27  1  0
 26 28  2  0
 27 52  1  6
 27 53  1  0
 27 54  1  0
 28 29  1  0
 28 55  1  0
 29 56  1  0
M  END
$$$$
