ZINC000408636159
     RDKit          3D

 58 60  0  0  1  0  0  0  0  0999 V2000
   -3.7220  -12.3623   -5.0469 C   0  0  1  0  0  0  0  0  0  0  0  0
   -3.8018  -11.1463   -4.1218 C   0  0  1  0  0  0  0  0  0  0  0  0
   -2.4982  -10.8413   -3.6223 O   0  0  0  0  0  0  0  0  0  0  0  0
   -2.3929   -9.7803   -2.7797 C   0  0  0  0  0  0  0  0  0  0  0  0
   -3.5221   -9.0512   -2.4361 C   0  0  0  0  0  0  0  0  0  0  0  0
   -3.4126   -7.9734   -1.5790 C   0  0  0  0  0  0  0  0  0  0  0  0
   -2.1788   -7.6207   -1.0641 C   0  0  0  0  0  0  0  0  0  0  0  0
   -2.0423   -6.2450    0.0284 S   0  0  1  0  0  0  0  0  0  0  0  0
   -0.7022   -5.7835   -0.0730 O   0  0  0  0  0  0  0  0  0  0  0  0
   -3.1702   -5.4184   -0.2244 O   0  0  0  0  0  0  0  0  0  0  0  0
   -2.2225   -6.8233    1.5697 N   0  0  0  0  0  0  0  0  0  0  0  0
   -3.5633   -7.0221    2.1254 C   0  0  1  0  0  0  0  0  0  0  0  0
   -3.9832   -8.4553    1.9237 C   0  0  0  0  0  0  0  0  0  0  0  0
   -3.2360   -9.2340    1.3702 O   0  0  0  0  0  0  0  0  0  0  0  0
   -5.1891   -8.8718    2.3583 N   0  0  0  0  0  0  0  0  0  0  0  0
   -5.5972  -10.2651    2.1622 C   0  0  1  0  0  0  0  0  0  0  0  0
   -6.9976  -10.4727    2.7426 C   0  0  2  0  0  0  0  0  0  0  0  0
   -7.0180  -10.1496    3.7834 H   0  0  0  0  0  0  0  0  0  0  0  0
   -7.3873  -11.9636    2.6493 C   0  0  1  0  0  0  0  0  0  0  0  0
   -8.8901  -11.8881    2.2648 C   0  0  1  0  0  0  0  0  0  0  0  0
   -8.9025  -10.6196    1.3750 C   0  0  1  0  0  0  0  0  0  0  0  0
   -7.9543   -9.7251    1.9827 O   0  0  0  0  0  0  0  0  0  0  0  0
   -1.0410   -7.1360    2.3774 C   0  0  1  0  0  0  0  0  0  0  0  0
   -0.7100   -5.9599    3.2597 C   0  0  0  0  0  0  0  0  0  0  0  0
    0.2267   -5.0299    2.8491 C   0  0  0  0  0  0  0  0  0  0  0  0
    0.5303   -3.9510    3.6583 C   0  0  0  0  0  0  0  0  0  0  0  0
   -0.1031   -3.8020    4.8779 C   0  0  0  0  0  0  0  0  0  0  0  0
   -1.0405   -4.7315    5.2881 C   0  0  0  0  0  0  0  0  0  0  0  0
   -1.3472   -5.8080    4.4769 C   0  0  0  0  0  0  0  0  0  0  0  0
   -1.0520   -8.3459   -1.4047 C   0  0  0  0  0  0  0  0  0  0  0  0
   -1.1570   -9.4279   -2.2572 C   0  0  0  0  0  0  0  0  0  0  0  0
   -4.7164  -12.5949   -5.4279 H   0  0  0  0  0  0  0  0  0  0  0  0
   -3.0559  -12.1412   -5.8809 H   0  0  0  0  0  0  0  0  0  0  0  0
   -3.3367  -13.2171   -4.4910 H   0  0  0  0  0  0  0  0  0  0  0  0
   -4.1871  -10.2915   -4.6777 H   0  0  0  0  0  0  0  0  0  0  0  0
   -4.4679  -11.3674   -3.2878 H   0  0  0  0  0  0  0  0  0  0  0  0
   -4.4859   -9.3259   -2.8386 H   0  0  0  0  0  0  0  0  0  0  0  0
   -4.2913   -7.4055   -1.3112 H   0  0  0  0  0  0  0  0  0  0  0  0
   -3.5526   -6.7932    3.1910 H   0  0  0  0  0  0  0  0  0  0  0  0
   -4.2680   -6.3624    1.6191 H   0  0  0  0  0  0  0  0  0  0  0  0
   -5.7867   -8.2490    2.8009 H   0  0  0  0  0  0  0  0  0  0  0  0
   -5.6080  -10.4940    1.0966 H   0  0  0  0  0  0  0  0  0  0  0  0
   -4.8926  -10.9248    2.6685 H   0  0  0  0  0  0  0  0  0  0  0  0
   -6.8127  -12.4669    1.8717 H   0  0  0  0  0  0  0  0  0  0  0  0
   -7.2575  -12.4594    3.6114 H   0  0  0  0  0  0  0  0  0  0  0  0
   -9.1955  -12.7680    1.6986 H   0  0  0  0  0  0  0  0  0  0  0  0
   -9.5153  -11.7548    3.1476 H   0  0  0  0  0  0  0  0  0  0  0  0
   -8.5934  -10.8668    0.3594 H   0  0  0  0  0  0  0  0  0  0  0  0
   -9.8957  -10.1705    1.3703 H   0  0  0  0  0  0  0  0  0  0  0  0
   -1.2453   -8.0090    2.9973 H   0  0  0  0  0  0  0  0  0  0  0  0
   -0.1970   -7.3463    1.7205 H   0  0  0  0  0  0  0  0  0  0  0  0
    0.7216   -5.1463    1.8962 H   0  0  0  0  0  0  0  0  0  0  0  0
    1.2627   -3.2248    3.3378 H   0  0  0  0  0  0  0  0  0  0  0  0
    0.1346   -2.9595    5.5105 H   0  0  0  0  0  0  0  0  0  0  0  0
   -1.5351   -4.6152    6.2411 H   0  0  0  0  0  0  0  0  0  0  0  0
   -2.0796   -6.5342    4.7974 H   0  0  0  0  0  0  0  0  0  0  0  0
   -0.0894   -8.0687   -1.0009 H   0  0  0  0  0  0  0  0  0  0  0  0
   -0.2766   -9.9941   -2.5229 H   0  0  0  0  0  0  0  0  0  0  0  0
  1  2  1  0
  1 32  1  6
  1 33  1  0
  1 34  1  0
  2  3  1  0
  2 35  1  6
  2 36  1  0
  3  4  1  0
  4 31  2  0
  4  5  1  0
  5  6  2  0
  5 37  1  0
  6  7  1  0
  6 38  1  0
  7  8  1  0
  7 30  2  0
  8  9  2  0
  8 10  2  0
  8 11  1  1
 11 12  1  0
 11 23  1  0
 12 13  1  0
 12 39  1  1
 12 40  1  0
 13 14  2  0
 13 15  1  0
 15 16  1  0
 15 41  1  0
 16 17  1  0
 16 42  1  6
 16 43  1  0
 17 18  1  1
 17 22  1  0
 17 19  1  0
 19 20  1  0
 19 44  1  6
 19 45  1  0
 20 21  1  0
 20 46  1  6
 20 47  1  0
 21 22  1  0
 21 48  1  6
 21 49  1  0
 23 24  1  0
 23 50  1  1
 23 51  1  0
 24 29  2  0
 24 25  1  0
 25 26  2  0
 25 52  1  0
 26 27  1  0
 26 53  1  0
 27 28  2  0
 27 54  1  0
 28 29  1  0
 28 55  1  0
 29 56  1  0
 30 31  1  0
 30 57  1  0
 31 58  1  0
M  END
$$$$
