ZINC000015743890
     RDKit          3D

 53 55  0  0  1  0  0  0  0  0999 V2000
   -0.0187    1.5258    0.0104 C   0  0  1  0  0  0  0  0  0  0  0  0
    0.0021   -0.0041    0.0020 C   0  0  2  0  0  0  0  0  0  0  0  0
    0.5123   -0.3556   -0.8948 H   0  0  0  0  0  0  0  0  0  0  0  0
   -1.4333   -0.5336    0.0129 C   0  0  1  0  0  0  0  0  0  0  0  0
   -2.1247   -0.1373   -1.2662 C   0  0  0  0  0  0  0  0  0  0  0  0
   -1.5281    0.5055   -2.1039 O   0  0  0  0  0  0  0  0  0  0  0  0
   -3.4060   -0.4971   -1.4791 N   0  0  0  0  0  0  0  0  0  0  0  0
   -4.1431   -1.2707   -0.4702 C   0  0  1  0  0  0  0  0  0  0  0  0
   -5.4278   -0.5125   -0.1135 C   0  0  1  0  0  0  0  0  0  0  0  0
   -6.1129   -0.1378   -1.3586 N   0  0  0  0  0  0  0  0  0  0  0  0
   -7.6875   -0.5790   -1.6197 S   0  0  1  0  0  0  0  0  0  0  0  0
   -7.8751   -0.5819   -3.0282 O   0  0  0  0  0  0  0  0  0  0  0  0
   -7.9267   -1.7159   -0.8014 O   0  0  0  0  0  0  0  0  0  0  0  0
   -8.7033    0.7133   -0.9851 C   0  0  0  0  0  0  0  0  0  0  0  0
   -9.1218    0.6800    0.3320 C   0  0  0  0  0  0  0  0  0  0  0  0
   -9.9188    1.6939    0.8299 C   0  0  0  0  0  0  0  0  0  0  0  0
  -10.2968    2.7413    0.0108 C   0  0  0  0  0  0  0  0  0  0  0  0
  -11.1660    3.8463    0.5534 C   0  0  1  0  0  0  0  0  0  0  0  0
  -10.3578    4.8587    1.0815 F   0  0  0  0  0  0  0  0  0  0  0  0
  -11.9540    4.3689   -0.4777 F   0  0  0  0  0  0  0  0  0  0  0  0
  -11.9933    3.3372    1.5602 F   0  0  0  0  0  0  0  0  0  0  0  0
   -9.8772    2.7753   -1.3059 C   0  0  0  0  0  0  0  0  0  0  0  0
   -9.0771    1.7634   -1.8027 C   0  0  0  0  0  0  0  0  0  0  0  0
   -5.3757    0.6358   -2.3675 C   0  0  1  0  0  0  0  0  0  0  0  0
   -4.0928   -0.1176   -2.7217 C   0  0  1  0  0  0  0  0  0  0  0  0
    0.7309   -0.5033    1.2229 C   0  0  0  0  0  0  0  0  0  0  0  0
    0.2630   -0.1872    2.4847 C   0  0  0  0  0  0  0  0  0  0  0  0
    0.9315   -0.6452    3.6046 C   0  0  0  0  0  0  0  0  0  0  0  0
    2.0678   -1.4195    3.4627 C   0  0  0  0  0  0  0  0  0  0  0  0
    2.5353   -1.7363    2.2010 C   0  0  0  0  0  0  0  0  0  0  0  0
    1.8643   -1.2820    1.0811 C   0  0  0  0  0  0  0  0  0  0  0  0
    1.0039    1.9031    0.0027 H   0  0  0  0  0  0  0  0  0  0  0  0
   -0.5459    1.8868   -0.8726 H   0  0  0  0  0  0  0  0  0  0  0  0
   -0.5289    1.8773    0.9072 H   0  0  0  0  0  0  0  0  0  0  0  0
   -1.4190   -1.6203    0.0965 H   0  0  0  0  0  0  0  0  0  0  0  0
   -1.9701   -0.1109    0.8621 H   0  0  0  0  0  0  0  0  0  0  0  0
   -4.3970   -2.2507   -0.8742 H   0  0  0  0  0  0  0  0  0  0  0  0
   -3.5281   -1.3882    0.4220 H   0  0  0  0  0  0  0  0  0  0  0  0
   -6.0772   -1.1534    0.4828 H   0  0  0  0  0  0  0  0  0  0  0  0
   -5.1776    0.3857    0.4510 H   0  0  0  0  0  0  0  0  0  0  0  0
   -8.8265   -0.1383    0.9719 H   0  0  0  0  0  0  0  0  0  0  0  0
  -10.2463    1.6674    1.8586 H   0  0  0  0  0  0  0  0  0  0  0  0
  -10.1723    3.5938   -1.9457 H   0  0  0  0  0  0  0  0  0  0  0  0
   -8.7493    1.7900   -2.8314 H   0  0  0  0  0  0  0  0  0  0  0  0
   -5.9908    0.7533   -3.2596 H   0  0  0  0  0  0  0  0  0  0  0  0
   -5.1219    1.6158   -1.9634 H   0  0  0  0  0  0  0  0  0  0  0  0
   -3.4444    0.5244   -3.3180 H   0  0  0  0  0  0  0  0  0  0  0  0
   -4.3405   -1.0167   -3.2858 H   0  0  0  0  0  0  0  0  0  0  0  0
   -0.6248    0.4177    2.5955 H   0  0  0  0  0  0  0  0  0  0  0  0
    0.5663   -0.3977    4.5903 H   0  0  0  0  0  0  0  0  0  0  0  0
    2.5906   -1.7767    4.3377 H   0  0  0  0  0  0  0  0  0  0  0  0
    3.4233   -2.3410    2.0902 H   0  0  0  0  0  0  0  0  0  0  0  0
    2.2295   -1.5295    0.0953 H   0  0  0  0  0  0  0  0  0  0  0  0
  1  2  1  0
  1 32  1  6
  1 33  1  0
  1 34  1  0
  2  3  1  6
  2  4  1  0
  2 26  1  0
  4  5  1  0
  4 35  1  1
  4 36  1  0
  5  6  2  0
  5  7  1  0
  7 25  1  0
  7  8  1  0
  8  9  1  0
  8 37  1  6
  8 38  1  0
  9 10  1  0
  9 39  1  1
  9 40  1  0
 11 10  1  6
 10 24  1  0
 11 12  2  0
 11 13  2  0
 11 14  1  0
 14 23  2  0
 14 15  1  0
 15 16  2  0
 15 41  1  0
 16 17  1  0
 16 42  1  0
 17 18  1  0
 17 22  2  0
 18 19  1  1
 18 20  1  0
 18 21  1  0
 22 23  1  0
 22 43  1  0
 23 44  1  0
 24 25  1  0
 24 45  1  6
 24 46  1  0
 25 47  1  6
 25 48  1  0
 26 31  2  0
 26 27  1  0
 27 28  2  0
 27 49  1  0
 28 29  1  0
 28 50  1  0
 29 30  2  0
 29 51  1  0
 30 31  1  0
 30 52  1  0
 31 53  1  0
M  END
$$$$
