ZINC000065467385
     RDKit          3D

 40 41  0  0  1  0  0  0  0  0999 V2000
    1.0908    0.8760    0.3667 C   0  0  1  0  0  0  0  0  0  0  0  0
    1.2493   -0.5454    0.1161 O   0  0  0  0  0  0  0  0  0  0  0  0
    0.5971   -1.0542   -0.9411 C   0  0  0  0  0  0  0  0  0  0  0  0
   -0.0836   -0.3357   -1.6341 O   0  0  0  0  0  0  0  0  0  0  0  0
    0.7140   -2.5217   -1.2637 C   0  0  1  0  0  0  0  0  0  0  0  0
    1.3499   -3.0088   -0.5244 H   0  0  0  0  0  0  0  0  0  0  0  0
   -0.6770   -3.1634   -1.2472 C   0  0  1  0  0  0  0  0  0  0  0  0
   -0.5687   -4.6180   -1.7104 C   0  0  1  0  0  0  0  0  0  0  0  0
    0.1119   -5.1588   -1.0529 H   0  0  0  0  0  0  0  0  0  0  0  0
   -1.8597   -5.2291   -1.6658 O   0  0  0  0  0  0  0  0  0  0  0  0
   -0.0342   -4.6603   -3.1438 C   0  0  1  0  0  0  0  0  0  0  0  0
    1.3640   -4.0355   -3.1817 C   0  0  1  0  0  0  0  0  0  0  0  0
    1.2984   -2.6869   -2.6015 N   0  0  0  0  0  0  0  0  0  0  0  0
    1.8664   -1.3781   -3.4422 S   0  0  1  0  0  0  0  0  0  0  0  0
    2.1692   -0.3811   -2.4760 O   0  0  0  0  0  0  0  0  0  0  0  0
    2.8215   -1.8792   -4.3674 O   0  0  0  0  0  0  0  0  0  0  0  0
    0.5267   -0.7520   -4.4002 C   0  0  0  0  0  0  0  0  0  0  0  0
    0.1172   -1.4229   -5.5374 C   0  0  0  0  0  0  0  0  0  0  0  0
   -0.9338   -0.9317   -6.2889 C   0  0  0  0  0  0  0  0  0  0  0  0
   -1.5758    0.2301   -5.9031 C   0  0  0  0  0  0  0  0  0  0  0  0
   -2.7213    0.7659   -6.7227 C   0  0  1  0  0  0  0  0  0  0  0  0
   -3.9231    0.2238   -6.2547 F   0  0  0  0  0  0  0  0  0  0  0  0
   -2.7634    2.1597   -6.6103 F   0  0  0  0  0  0  0  0  0  0  0  0
   -2.5409    0.4114   -8.0640 F   0  0  0  0  0  0  0  0  0  0  0  0
   -1.1672    0.9003   -4.7651 C   0  0  0  0  0  0  0  0  0  0  0  0
   -0.1186    0.4070   -4.0115 C   0  0  0  0  0  0  0  0  0  0  0  0
    1.4472    1.4390   -0.4960 H   0  0  0  0  0  0  0  0  0  0  0  0
    0.0377    1.0997    0.5368 H   0  0  0  0  0  0  0  0  0  0  0  0
    1.6687    1.1562    1.2474 H   0  0  0  0  0  0  0  0  0  0  0  0
   -1.0797   -3.1330   -0.2348 H   0  0  0  0  0  0  0  0  0  0  0  0
   -1.3382   -2.6159   -1.9189 H   0  0  0  0  0  0  0  0  0  0  0  0
   -1.8668   -6.1544   -1.9469 H   0  0  0  0  0  0  0  0  0  0  0  0
    0.0205   -5.6953   -3.4813 H   0  0  0  0  0  0  0  0  0  0  0  0
   -0.7015   -4.0987   -3.7976 H   0  0  0  0  0  0  0  0  0  0  0  0
    2.0537   -4.6477   -2.6007 H   0  0  0  0  0  0  0  0  0  0  0  0
    1.7084   -3.9730   -4.2140 H   0  0  0  0  0  0  0  0  0  0  0  0
    0.6188   -2.3306   -5.8388 H   0  0  0  0  0  0  0  0  0  0  0  0
   -1.2532   -1.4555   -7.1778 H   0  0  0  0  0  0  0  0  0  0  0  0
   -1.6690    1.8078   -4.4635 H   0  0  0  0  0  0  0  0  0  0  0  0
    0.2005    0.9306   -3.1224 H   0  0  0  0  0  0  0  0  0  0  0  0
  1  2  1  0
  1 27  1  6
  1 28  1  0
  1 29  1  0
  2  3  1  0
  3  4  2  0
  3  5  1  0
  5  6  1  1
  5 13  1  0
  5  7  1  0
  7  8  1  0
  7 30  1  1
  7 31  1  0
  8  9  1  1
  8 10  1  0
  8 11  1  0
 10 32  1  0
 11 12  1  0
 11 33  1  6
 11 34  1  0
 12 13  1  0
 12 35  1  1
 12 36  1  0
 14 13  1  1
 14 15  2  0
 14 16  2  0
 14 17  1  0
 17 26  2  0
 17 18  1  0
 18 19  2  0
 18 37  1  0
 19 20  1  0
 19 38  1  0
 20 21  1  0
 20 25  2  0
 21 22  1  1
 21 23  1  0
 21 24  1  0
 25 26  1  0
 25 39  1  0
 26 40  1  0
M  END
$$$$
