ZINC000217632584
     RDKit          3D

 44 46  0  0  1  0  0  0  0  0999 V2000
   -0.0176    1.4478    0.0100 C   0  0  1  0  0  0  0  0  0  0  0  0
    0.0021   -0.0041    0.0020 O   0  0  0  0  0  0  0  0  0  0  0  0
    0.6005   -0.6018   -1.0464 C   0  0  0  0  0  0  0  0  0  0  0  0
    1.0924    0.0714   -1.9298 O   0  0  0  0  0  0  0  0  0  0  0  0
    0.6585   -2.0760   -1.1219 C   0  0  0  0  0  0  0  0  0  0  0  0
    0.0891   -2.8529   -0.1110 C   0  0  0  0  0  0  0  0  0  0  0  0
    0.1469   -4.2290   -0.1877 C   0  0  0  0  0  0  0  0  0  0  0  0
    0.7674   -4.8396   -1.2632 C   0  0  0  0  0  0  0  0  0  0  0  0
    0.8361   -6.5980   -1.3534 S   0  0  1  0  0  0  0  0  0  0  0  0
    1.9426   -6.9141   -2.1871 O   0  0  0  0  0  0  0  0  0  0  0  0
    0.7063   -7.0735   -0.0207 O   0  0  0  0  0  0  0  0  0  0  0  0
   -0.5181   -7.1006   -2.1632 N   0  0  0  0  0  0  0  0  0  0  0  0
   -1.7716   -7.4117   -1.4795 C   0  0  1  0  0  0  0  0  0  0  0  0
   -2.5313   -8.5166   -2.2650 C   0  0  1  0  0  0  0  0  0  0  0  0
   -2.2139   -7.9487   -3.9888 S   0  0  0  0  0  0  0  0  0  0  0  0
   -0.5508   -7.2613   -3.6247 C   0  0  1  0  0  0  0  0  0  0  0  0
    0.2250   -7.9581   -3.9420 H   0  0  0  0  0  0  0  0  0  0  0  0
   -0.3719   -5.9316   -4.3111 C   0  0  0  0  0  0  0  0  0  0  0  0
   -0.7536   -4.7669   -3.6719 C   0  0  0  0  0  0  0  0  0  0  0  0
   -0.5894   -3.5473   -4.3015 C   0  0  0  0  0  0  0  0  0  0  0  0
   -0.0431   -3.4923   -5.5701 C   0  0  0  0  0  0  0  0  0  0  0  0
    0.1354   -2.1627   -6.2567 C   0  0  1  0  0  0  0  0  0  0  0  0
    1.3962   -1.6426   -5.9453 F   0  0  0  0  0  0  0  0  0  0  0  0
    0.0309   -2.3351   -7.6411 F   0  0  0  0  0  0  0  0  0  0  0  0
   -0.8554   -1.2762   -5.8211 F   0  0  0  0  0  0  0  0  0  0  0  0
    0.3399   -4.6569   -6.2088 C   0  0  0  0  0  0  0  0  0  0  0  0
    0.1793   -5.8763   -5.5776 C   0  0  0  0  0  0  0  0  0  0  0  0
    1.3337   -4.0758   -2.2684 C   0  0  0  0  0  0  0  0  0  0  0  0
    1.2780   -2.6989   -2.2072 C   0  0  0  0  0  0  0  0  0  0  0  0
    1.0050    1.8251    0.0023 H   0  0  0  0  0  0  0  0  0  0  0  0
   -0.5448    1.8089   -0.8731 H   0  0  0  0  0  0  0  0  0  0  0  0
   -0.5278    1.7993    0.9068 H   0  0  0  0  0  0  0  0  0  0  0  0
   -0.3952   -2.3775    0.7291 H   0  0  0  0  0  0  0  0  0  0  0  0
   -0.2928   -4.8311    0.5936 H   0  0  0  0  0  0  0  0  0  0  0  0
   -1.5573   -7.7651   -0.4709 H   0  0  0  0  0  0  0  0  0  0  0  0
   -2.3885   -6.5146   -1.4259 H   0  0  0  0  0  0  0  0  0  0  0  0
   -2.0979   -9.5004   -2.0852 H   0  0  0  0  0  0  0  0  0  0  0  0
   -3.5965   -8.5066   -2.0338 H   0  0  0  0  0  0  0  0  0  0  0  0
   -1.1804   -4.8098   -2.6807 H   0  0  0  0  0  0  0  0  0  0  0  0
   -0.8883   -2.6373   -3.8024 H   0  0  0  0  0  0  0  0  0  0  0  0
    0.7670   -4.6140   -7.1998 H   0  0  0  0  0  0  0  0  0  0  0  0
    0.4785   -6.7861   -6.0765 H   0  0  0  0  0  0  0  0  0  0  0  0
    1.8165   -4.5589   -3.1051 H   0  0  0  0  0  0  0  0  0  0  0  0
    1.7205   -2.1038   -2.9924 H   0  0  0  0  0  0  0  0  0  0  0  0
  1  2  1  0
  1 30  1  6
  1 31  1  0
  1 32  1  0
  2  3  1  0
  3  4  2  0
  3  5  1  0
  5 29  2  0
  5  6  1  0
  6  7  2  0
  6 33  1  0
  7  8  1  0
  7 34  1  0
  8  9  1  0
  8 28  2  0
  9 10  2  0
  9 11  2  0
  9 12  1  6
 12 16  1  0
 12 13  1  0
 13 14  1  0
 13 35  1  1
 13 36  1  0
 14 15  1  0
 14 37  1  6
 14 38  1  0
 15 16  1  0
 16 17  1  6
 16 18  1  0
 18 27  2  0
 18 19  1  0
 19 20  2  0
 19 39  1  0
 20 21  1  0
 20 40  1  0
 21 22  1  0
 21 26  2  0
 22 23  1  6
 22 24  1  0
 22 25  1  0
 26 27  1  0
 26 41  1  0
 27 42  1  0
 28 29  1  0
 28 43  1  0
 29 44  1  0
M  END
$$$$
