ZINC000409078019
     RDKit          3D

 53 54  0  0  0  0  0  0  0  0999 V2000
   -0.0173    1.4248    0.0099 C   0  0  1  0  0  0  0  0  0  0  0  0
    0.0021   -0.0041    0.0020 O   0  0  0  0  0  0  0  0  0  0  0  0
    0.6734   -0.5824    1.1231 C   0  0  1  0  0  0  0  0  0  0  0  0
    0.6327   -2.1077    1.0107 C   0  0  1  0  0  0  0  0  0  0  0  0
    1.3514   -2.7270    2.2110 C   0  0  1  0  0  0  0  0  0  0  0  0
    1.3125   -4.1875    2.1034 N   0  0  0  0  0  0  0  0  0  0  0  0
    1.8871   -4.9489    3.0555 C   0  0  0  0  0  0  0  0  0  0  0  0
    2.4365   -4.4251    4.0013 O   0  0  0  0  0  0  0  0  0  0  0  0
    1.8470   -6.4513    2.9447 C   0  0  1  0  0  0  0  0  0  0  0  0
    2.5352   -7.0443    4.0941 N   0  0  0  0  0  0  0  0  0  0  0  0
    1.8124   -7.2579    5.3503 C   0  0  1  0  0  0  0  0  0  0  0  0
    1.0819   -8.5747    5.2919 C   0  0  0  0  0  0  0  0  0  0  0  0
   -0.2097   -8.6275    4.8022 C   0  0  0  0  0  0  0  0  0  0  0  0
   -0.8798   -9.8353    4.7486 C   0  0  0  0  0  0  0  0  0  0  0  0
   -0.2581  -10.9906    5.1842 C   0  0  0  0  0  0  0  0  0  0  0  0
   -0.9887  -12.3073    5.1263 C   0  0  1  0  0  0  0  0  0  0  0  0
    1.0341  -10.9381    5.6727 C   0  0  0  0  0  0  0  0  0  0  0  0
    1.7055   -9.7308    5.7227 C   0  0  0  0  0  0  0  0  0  0  0  0
    4.1302   -7.4730    3.9732 S   0  0  1  0  0  0  0  0  0  0  0  0
    4.3175   -8.5738    4.8521 O   0  0  0  0  0  0  0  0  0  0  0  0
    4.4269   -7.5278    2.5846 O   0  0  0  0  0  0  0  0  0  0  0  0
    5.0792   -6.1428    4.6326 C   0  0  0  0  0  0  0  0  0  0  0  0
    5.4989   -5.1173    3.8061 C   0  0  0  0  0  0  0  0  0  0  0  0
    6.2430   -4.0734    4.3230 C   0  0  0  0  0  0  0  0  0  0  0  0
    6.5677   -4.0550    5.6674 C   0  0  0  0  0  0  0  0  0  0  0  0
    7.5851   -2.6269    6.3753 Br  0  0  0  0  0  0  0  0  0  0  0  0
    6.1475   -5.0815    6.4941 C   0  0  0  0  0  0  0  0  0  0  0  0
    5.3990   -6.1222    5.9773 C   0  0  0  0  0  0  0  0  0  0  0  0
    1.0053    1.8021    0.0021 H   0  0  0  0  0  0  0  0  0  0  0  0
   -0.5445    1.7859   -0.8732 H   0  0  0  0  0  0  0  0  0  0  0  0
   -0.5275    1.7763    0.9067 H   0  0  0  0  0  0  0  0  0  0  0  0
    1.7103   -0.2468    1.1385 H   0  0  0  0  0  0  0  0  0  0  0  0
    0.1775   -0.2725    2.0430 H   0  0  0  0  0  0  0  0  0  0  0  0
   -0.4042   -2.4434    0.9953 H   0  0  0  0  0  0  0  0  0  0  0  0
    1.1285   -2.4176    0.0908 H   0  0  0  0  0  0  0  0  0  0  0  0
    2.3884   -2.3913    2.2264 H   0  0  0  0  0  0  0  0  0  0  0  0
    0.8556   -2.4171    3.1309 H   0  0  0  0  0  0  0  0  0  0  0  0
    0.8731   -4.6065    1.3469 H   0  0  0  0  0  0  0  0  0  0  0  0
    0.8101   -6.7870    2.9294 H   0  0  0  0  0  0  0  0  0  0  0  0
    2.3429   -6.7612    2.0248 H   0  0  0  0  0  0  0  0  0  0  0  0
    2.5204   -7.2716    6.1790 H   0  0  0  0  0  0  0  0  0  0  0  0
    1.0951   -6.4507    5.4986 H   0  0  0  0  0  0  0  0  0  0  0  0
   -0.6954   -7.7249    4.4618 H   0  0  0  0  0  0  0  0  0  0  0  0
   -1.8891   -9.8764    4.3666 H   0  0  0  0  0  0  0  0  0  0  0  0
   -0.8000  -12.7856    4.1651 H   0  0  0  0  0  0  0  0  0  0  0  0
   -0.6361  -12.9542    5.9295 H   0  0  0  0  0  0  0  0  0  0  0  0
   -2.0587  -12.1345    5.2422 H   0  0  0  0  0  0  0  0  0  0  0  0
    1.5199  -11.8407    6.0127 H   0  0  0  0  0  0  0  0  0  0  0  0
    2.7150   -9.6897    6.1043 H   0  0  0  0  0  0  0  0  0  0  0  0
    5.2456   -5.1318    2.7563 H   0  0  0  0  0  0  0  0  0  0  0  0
    6.5711   -3.2724    3.6771 H   0  0  0  0  0  0  0  0  0  0  0  0
    6.4007   -5.0675    7.5439 H   0  0  0  0  0  0  0  0  0  0  0  0
    5.0709   -6.9237    6.6227 H   0  0  0  0  0  0  0  0  0  0  0  0
  1  2  1  0
  1 29  1  6
  1 30  1  0
  1 31  1  0
  2  3  1  0
  3  4  1  0
  3 32  1  1
  3 33  1  0
  4  5  1  0
  4 34  1  6
  4 35  1  0
  5  6  1  0
  5 36  1  1
  5 37  1  0
  6  7  1  0
  6 38  1  0
  7  8  2  0
  7  9  1  0
  9 10  1  0
  9 39  1  6
  9 40  1  0
 10 11  1  0
 19 10  1  6
 11 12  1  0
 11 41  1  1
 11 42  1  0
 12 18  2  0
 12 13  1  0
 13 14  2  0
 13 43  1  0
 14 15  1  0
 14 44  1  0
 15 16  1  0
 15 17  2  0
 16 45  1  6
 16 46  1  0
 16 47  1  0
 17 18  1  0
 17 48  1  0
 18 49  1  0
 19 20  2  0
 19 21  2  0
 19 22  1  0
 22 28  2  0
 22 23  1  0
 23 24  2  0
 23 50  1  0
 24 25  1  0
 24 51  1  0
 25 26  1  0
 25 27  2  0
 27 28  1  0
 27 52  1  0
 28 53  1  0
M  END
$$$$
