ZINC000408607380
     RDKit          3D

 59 61  0  0  1  0  0  0  0  0999 V2000
   -0.0187    1.5258    0.0104 C   0  0  1  0  0  0  0  0  0  0  0  0
    0.0021   -0.0041    0.0020 C   0  0  1  0  0  0  0  0  0  0  0  0
   -1.0205   -0.3814    0.0098 H   0  0  0  0  0  0  0  0  0  0  0  0
    0.7182   -0.4975   -1.2568 C   0  0  1  0  0  0  0  0  0  0  0  0
    0.6303   -2.0233   -1.3286 C   0  0  1  0  0  0  0  0  0  0  0  0
    1.3357   -2.5093   -2.5685 C   0  0  0  0  0  0  0  0  0  0  0  0
    0.6379   -2.6389   -3.7547 C   0  0  0  0  0  0  0  0  0  0  0  0
    1.2849   -3.0847   -4.8920 C   0  0  0  0  0  0  0  0  0  0  0  0
    2.6299   -3.4004   -4.8432 C   0  0  0  0  0  0  0  0  0  0  0  0
    3.3279   -3.2700   -3.6572 C   0  0  0  0  0  0  0  0  0  0  0  0
    2.6818   -2.8201   -2.5209 C   0  0  0  0  0  0  0  0  0  0  0  0
    0.7106   -0.4894    1.1889 N   0  0  0  0  0  0  0  0  0  0  0  0
    0.0512   -0.6335    2.3554 C   0  0  0  0  0  0  0  0  0  0  0  0
   -1.1288   -0.3614    2.4226 O   0  0  0  0  0  0  0  0  0  0  0  0
    0.7801   -1.1327    3.5763 C   0  0  1  0  0  0  0  0  0  0  0  0
   -0.1498   -1.2008    4.7064 N   0  0  0  0  0  0  0  0  0  0  0  0
   -0.9883   -2.3873    4.8945 C   0  0  1  0  0  0  0  0  0  0  0  0
   -0.2147   -3.4337    5.6546 C   0  0  0  0  0  0  0  0  0  0  0  0
    0.5500   -4.3604    4.9709 C   0  0  0  0  0  0  0  0  0  0  0  0
    1.2595   -5.3202    5.6680 C   0  0  0  0  0  0  0  0  0  0  0  0
    1.2048   -5.3532    7.0489 C   0  0  0  0  0  0  0  0  0  0  0  0
    0.4408   -4.4259    7.7326 C   0  0  0  0  0  0  0  0  0  0  0  0
   -0.2653   -3.4634    7.0357 C   0  0  0  0  0  0  0  0  0  0  0  0
   -0.2530    0.0634    5.7711 S   0  0  1  0  0  0  0  0  0  0  0  0
   -0.7600   -0.4745    6.9847 O   0  0  0  0  0  0  0  0  0  0  0  0
    0.9819    0.7613    5.6862 O   0  0  0  0  0  0  0  0  0  0  0  0
   -1.4880    1.1611    5.1591 C   0  0  0  0  0  0  0  0  0  0  0  0
   -1.1387    2.1801    4.2927 C   0  0  0  0  0  0  0  0  0  0  0  0
   -2.1069    3.0415    3.8124 C   0  0  0  0  0  0  0  0  0  0  0  0
   -3.4260    2.8838    4.1988 C   0  0  0  0  0  0  0  0  0  0  0  0
   -4.6428    3.9650    3.5955 Cl  0  0  0  0  0  0  0  0  0  0  0  0
   -3.7750    1.8638    5.0660 C   0  0  0  0  0  0  0  0  0  0  0  0
   -2.8067    0.9996    5.5412 C   0  0  0  0  0  0  0  0  0  0  0  0
    1.0039    1.9031    0.0027 H   0  0  0  0  0  0  0  0  0  0  0  0
   -0.5459    1.8868   -0.8726 H   0  0  0  0  0  0  0  0  0  0  0  0
   -0.5289    1.8773    0.9072 H   0  0  0  0  0  0  0  0  0  0  0  0
    0.2444   -0.0644   -2.1377 H   0  0  0  0  0  0  0  0  0  0  0  0
    1.7648   -0.1951   -1.2215 H   0  0  0  0  0  0  0  0  0  0  0  0
    1.1041   -2.4564   -0.4477 H   0  0  0  0  0  0  0  0  0  0  0  0
   -0.4163   -2.3257   -1.3639 H   0  0  0  0  0  0  0  0  0  0  0  0
   -0.4128   -2.3922   -3.7929 H   0  0  0  0  0  0  0  0  0  0  0  0
    0.7396   -3.1866   -5.8187 H   0  0  0  0  0  0  0  0  0  0  0  0
    3.1352   -3.7494   -5.7316 H   0  0  0  0  0  0  0  0  0  0  0  0
    4.3785   -3.5170   -3.6190 H   0  0  0  0  0  0  0  0  0  0  0  0
    3.2272   -2.7181   -1.5943 H   0  0  0  0  0  0  0  0  0  0  0  0
    1.6544   -0.7070    1.1351 H   0  0  0  0  0  0  0  0  0  0  0  0
    1.1839   -2.1254    3.3778 H   0  0  0  0  0  0  0  0  0  0  0  0
    1.5952   -0.4503    3.8172 H   0  0  0  0  0  0  0  0  0  0  0  0
   -1.8814   -2.1155    5.4572 H   0  0  0  0  0  0  0  0  0  0  0  0
   -1.2786   -2.7849    3.9221 H   0  0  0  0  0  0  0  0  0  0  0  0
    0.5927   -4.3346    3.8920 H   0  0  0  0  0  0  0  0  0  0  0  0
    1.8564   -6.0447    5.1338 H   0  0  0  0  0  0  0  0  0  0  0  0
    1.7586   -6.1035    7.5935 H   0  0  0  0  0  0  0  0  0  0  0  0
    0.3978   -4.4518    8.8115 H   0  0  0  0  0  0  0  0  0  0  0  0
   -0.8622   -2.7389    7.5698 H   0  0  0  0  0  0  0  0  0  0  0  0
   -0.1089    2.3034    3.9914 H   0  0  0  0  0  0  0  0  0  0  0  0
   -1.8339    3.8378    3.1358 H   0  0  0  0  0  0  0  0  0  0  0  0
   -4.8044    1.7404    5.3682 H   0  0  0  0  0  0  0  0  0  0  0  0
   -3.0790    0.2031    6.2178 H   0  0  0  0  0  0  0  0  0  0  0  0
  1  2  1  0
  1 34  1  6
  1 35  1  0
  1 36  1  0
  2  3  1  1
  2  4  1  0
  2 12  1  0
  4  5  1  0
  4 37  1  6
  4 38  1  0
  5  6  1  0
  5 39  1  1
  5 40  1  0
  6 11  2  0
  6  7  1  0
  7  8  2  0
  7 41  1  0
  8  9  1  0
  8 42  1  0
  9 10  2  0
  9 43  1  0
 10 11  1  0
 10 44  1  0
 11 45  1  0
 12 13  1  0
 12 46  1  0
 13 14  2  0
 13 15  1  0
 15 16  1  0
 15 47  1  6
 15 48  1  0
 16 17  1  0
 24 16  1  6
 17 18  1  0
 17 49  1  1
 17 50  1  0
 18 23  2  0
 18 19  1  0
 19 20  2  0
 19 51  1  0
 20 21  1  0
 20 52  1  0
 21 22  2  0
 21 53  1  0
 22 23  1  0
 22 54  1  0
 23 55  1  0
 24 25  2  0
 24 26  2  0
 24 27  1  0
 27 33  2  0
 27 28  1  0
 28 29  2  0
 28 56  1  0
 29 30  1  0
 29 57  1  0
 30 31  1  0
 30 32  2  0
 32 33  1  0
 32 58  1  0
 33 59  1  0
M  END
$$$$
