ZINC000408582200
     RDKit          3D

 56 57  0  0  1  0  0  0  0  0999 V2000
   -0.0187    1.5258    0.0104 C   0  0  1  0  0  0  0  0  0  0  0  0
    0.0021   -0.0041    0.0020 C   0  0  1  0  0  0  0  0  0  0  0  0
    0.7182   -0.4975   -1.2568 C   0  0  1  0  0  0  0  0  0  0  0  0
    0.7390   -2.0273   -1.2652 C   0  0  2  0  0  0  0  0  0  0  0  0
    1.1870   -2.3897   -0.3400 H   0  0  0  0  0  0  0  0  0  0  0  0
    1.5619   -2.5197   -2.4574 C   0  0  1  0  0  0  0  0  0  0  0  0
   -0.6313   -2.5337   -1.3752 N   0  0  0  0  0  0  0  0  0  0  0  0
   -0.9349   -3.7625   -0.9121 C   0  0  0  0  0  0  0  0  0  0  0  0
   -0.0737   -4.4490   -0.4043 O   0  0  0  0  0  0  0  0  0  0  0  0
   -2.3445   -4.2833   -1.0253 C   0  0  1  0  0  0  0  0  0  0  0  0
   -2.4146   -5.6306   -0.4541 N   0  0  0  0  0  0  0  0  0  0  0  0
   -2.6151   -5.8059    0.9865 C   0  0  1  0  0  0  0  0  0  0  0  0
   -4.0884   -5.7533    1.2987 C   0  0  0  0  0  0  0  0  0  0  0  0
   -4.6903   -4.5437    1.5910 C   0  0  0  0  0  0  0  0  0  0  0  0
   -6.0418   -4.4955    1.8773 C   0  0  0  0  0  0  0  0  0  0  0  0
   -6.7915   -5.6569    1.8710 C   0  0  0  0  0  0  0  0  0  0  0  0
   -6.1898   -6.8664    1.5779 C   0  0  0  0  0  0  0  0  0  0  0  0
   -4.8392   -6.9140    1.2873 C   0  0  0  0  0  0  0  0  0  0  0  0
   -2.2672   -6.9553   -1.4368 S   0  0  1  0  0  0  0  0  0  0  0  0
   -2.9039   -8.0301   -0.7596 O   0  0  0  0  0  0  0  0  0  0  0  0
   -2.6374   -6.5304   -2.7413 O   0  0  0  0  0  0  0  0  0  0  0  0
   -0.5541   -7.3603   -1.5129 C   0  0  0  0  0  0  0  0  0  0  0  0
    0.2456   -6.7957   -2.4889 C   0  0  0  0  0  0  0  0  0  0  0  0
    1.5897   -7.1110   -2.5509 C   0  0  0  0  0  0  0  0  0  0  0  0
    2.1366   -7.9947   -1.6330 C   0  0  0  0  0  0  0  0  0  0  0  0
    3.4585   -8.3060   -1.6917 O   0  0  0  0  0  0  0  0  0  0  0  0
    4.2257   -7.6857   -2.7255 C   0  0  1  0  0  0  0  0  0  0  0  0
    1.3317   -8.5608   -0.6533 C   0  0  0  0  0  0  0  0  0  0  0  0
    2.0122   -9.6677    0.4980 Cl  0  0  0  0  0  0  0  0  0  0  0  0
   -0.0108   -8.2379   -0.5926 C   0  0  0  0  0  0  0  0  0  0  0  0
    1.0039    1.9031    0.0027 H   0  0  0  0  0  0  0  0  0  0  0  0
   -0.5459    1.8868   -0.8726 H   0  0  0  0  0  0  0  0  0  0  0  0
   -0.5289    1.8773    0.9072 H   0  0  0  0  0  0  0  0  0  0  0  0
    0.5293   -0.3651    0.8851 H   0  0  0  0  0  0  0  0  0  0  0  0
   -1.0205   -0.3814    0.0098 H   0  0  0  0  0  0  0  0  0  0  0  0
    0.1910   -0.1364   -2.1398 H   0  0  0  0  0  0  0  0  0  0  0  0
    1.7408   -0.1202   -1.2645 H   0  0  0  0  0  0  0  0  0  0  0  0
    2.5814   -2.1429   -2.3755 H   0  0  0  0  0  0  0  0  0  0  0  0
    1.5766   -3.6095   -2.4634 H   0  0  0  0  0  0  0  0  0  0  0  0
    1.1138   -2.1573   -3.3826 H   0  0  0  0  0  0  0  0  0  0  0  0
   -1.3201   -1.9846   -1.7814 H   0  0  0  0  0  0  0  0  0  0  0  0
   -3.0206   -3.6229   -0.4824 H   0  0  0  0  0  0  0  0  0  0  0  0
   -2.6358   -4.3182   -2.0751 H   0  0  0  0  0  0  0  0  0  0  0  0
   -2.2126   -6.7708    1.2946 H   0  0  0  0  0  0  0  0  0  0  0  0
   -2.1010   -5.0093    1.5244 H   0  0  0  0  0  0  0  0  0  0  0  0
   -4.1046   -3.6363    1.5959 H   0  0  0  0  0  0  0  0  0  0  0  0
   -6.5119   -3.5505    2.1064 H   0  0  0  0  0  0  0  0  0  0  0  0
   -7.8473   -5.6193    2.0955 H   0  0  0  0  0  0  0  0  0  0  0  0
   -6.7755   -7.7738    1.5733 H   0  0  0  0  0  0  0  0  0  0  0  0
   -4.3691   -7.8589    1.0582 H   0  0  0  0  0  0  0  0  0  0  0  0
   -0.1806   -6.1077   -3.2040 H   0  0  0  0  0  0  0  0  0  0  0  0
    2.2136   -6.6696   -3.3140 H   0  0  0  0  0  0  0  0  0  0  0  0
    3.8163   -7.9618   -3.6972 H   0  0  0  0  0  0  0  0  0  0  0  0
    4.1847   -6.6028   -2.6084 H   0  0  0  0  0  0  0  0  0  0  0  0
    5.2612   -8.0193   -2.6594 H   0  0  0  0  0  0  0  0  0  0  0  0
   -0.6377   -8.6774    0.1692 H   0  0  0  0  0  0  0  0  0  0  0  0
  1  2  1  0
  1 31  1  6
  1 32  1  0
  1 33  1  0
  2  3  1  0
  2 34  1  1
  2 35  1  0
  3  4  1  0
  3 36  1  6
  3 37  1  0
  4  5  1  1
  4  6  1  0
  4  7  1  0
  6 38  1  1
  6 39  1  0
  6 40  1  0
  7  8  1  0
  7 41  1  0
  8  9  2  0
  8 10  1  0
 10 11  1  0
 10 42  1  1
 10 43  1  0
 11 12  1  0
 19 11  1  1
 12 13  1  0
 12 44  1  1
 12 45  1  0
 13 18  2  0
 13 14  1  0
 14 15  2  0
 14 46  1  0
 15 16  1  0
 15 47  1  0
 16 17  2  0
 16 48  1  0
 17 18  1  0
 17 49  1  0
 18 50  1  0
 19 20  2  0
 19 21  2  0
 19 22  1  0
 22 30  2  0
 22 23  1  0
 23 24  2  0
 23 51  1  0
 24 25  1  0
 24 52  1  0
 25 26  1  0
 25 28  2  0
 26 27  1  0
 27 53  1  6
 27 54  1  0
 27 55  1  0
 28 29  1  0
 28 30  1  0
 30 56  1  0
M  END
$$$$
