ZINC000077200743
     RDKit          3D

 51 52  0  0  1  0  0  0  0  0999 V2000
   -0.0187    1.5258    0.0104 C   0  0  1  0  0  0  0  0  0  0  0  0
    0.0021   -0.0041    0.0020 C   0  0  1  0  0  0  0  0  0  0  0  0
    0.7182   -0.4975   -1.2568 C   0  0  1  0  0  0  0  0  0  0  0  0
    0.7126   -0.4907    1.1921 N   0  0  2  0  0  0  0  0  0  0  0  0
    1.6590   -0.1409    1.1840 H   0  0  0  0  0  0  0  0  0  0  0  0
    0.7348   -1.9583    1.1809 C   0  0  1  0  0  0  0  0  0  0  0  0
    1.5433   -2.4691    2.3754 C   0  0  1  0  0  0  0  0  0  0  0  0
    0.8943   -1.9768    3.6722 C   0  0  1  0  0  0  0  0  0  0  0  0
    1.7416   -2.4170    4.8676 C   0  0  1  0  0  0  0  0  0  0  0  0
    1.0597   -2.0499    6.1112 N   0  0  0  0  0  0  0  0  0  0  0  0
    1.5428   -2.7161    7.5482 S   0  0  1  0  0  0  0  0  0  0  0  0
    0.6565   -2.1582    8.5086 O   0  0  0  0  0  0  0  0  0  0  0  0
    1.5643   -4.1145    7.2965 O   0  0  0  0  0  0  0  0  0  0  0  0
    3.2265   -2.0878    7.7951 C   0  0  1  0  0  0  0  0  0  0  0  0
    3.7809   -2.6309    9.0869 C   0  0  0  0  0  0  0  0  0  0  0  0
    3.5910   -1.9362   10.2668 C   0  0  0  0  0  0  0  0  0  0  0  0
    4.0996   -2.4344   11.4518 C   0  0  0  0  0  0  0  0  0  0  0  0
    4.7976   -3.6275   11.4568 C   0  0  0  0  0  0  0  0  0  0  0  0
    5.3525   -4.1704   12.7485 C   0  0  1  0  0  0  0  0  0  0  0  0
    4.3995   -4.9956   13.3552 F   0  0  0  0  0  0  0  0  0  0  0  0
    6.5098   -4.9107   12.4843 F   0  0  0  0  0  0  0  0  0  0  0  0
    5.6633   -3.1089   13.6052 F   0  0  0  0  0  0  0  0  0  0  0  0
    4.9864   -4.3229   10.2771 C   0  0  0  0  0  0  0  0  0  0  0  0
    4.4745   -3.8267    9.0928 C   0  0  0  0  0  0  0  0  0  0  0  0
    0.8088   -0.4481    3.6403 C   0  0  1  0  0  0  0  0  0  0  0  0
    0.0265   -0.0136    2.3989 C   0  0  1  0  0  0  0  0  0  0  0  0
    1.0039    1.9031    0.0027 H   0  0  0  0  0  0  0  0  0  0  0  0
   -0.5459    1.8868   -0.8726 H   0  0  0  0  0  0  0  0  0  0  0  0
   -0.5289    1.8773    0.9072 H   0  0  0  0  0  0  0  0  0  0  0  0
   -1.0205   -0.3814    0.0098 H   0  0  0  0  0  0  0  0  0  0  0  0
    1.7408   -0.1202   -1.2645 H   0  0  0  0  0  0  0  0  0  0  0  0
    0.7330   -1.5874   -1.2628 H   0  0  0  0  0  0  0  0  0  0  0  0
    0.1910   -0.1364   -2.1398 H   0  0  0  0  0  0  0  0  0  0  0  0
   -0.2853   -2.3372    1.2444 H   0  0  0  0  0  0  0  0  0  0  0  0
    1.1940   -2.3072    0.2560 H   0  0  0  0  0  0  0  0  0  0  0  0
    1.5571   -3.5590    2.3663 H   0  0  0  0  0  0  0  0  0  0  0  0
    2.5637   -2.0910    2.3127 H   0  0  0  0  0  0  0  0  0  0  0  0
   -0.1075   -2.3972    3.7609 H   0  0  0  0  0  0  0  0  0  0  0  0
    1.8817   -3.4975    4.8354 H   0  0  0  0  0  0  0  0  0  0  0  0
    2.7125   -1.9233    4.8262 H   0  0  0  0  0  0  0  0  0  0  0  0
    0.3253   -1.4165    6.0928 H   0  0  0  0  0  0  0  0  0  0  0  0
    3.8584   -2.4063    6.9661 H   0  0  0  0  0  0  0  0  0  0  0  0
    3.2052   -0.9988    7.8382 H   0  0  0  0  0  0  0  0  0  0  0  0
    3.0456   -1.0040   10.2629 H   0  0  0  0  0  0  0  0  0  0  0  0
    3.9518   -1.8913   12.3735 H   0  0  0  0  0  0  0  0  0  0  0  0
    5.5314   -5.2553   10.2812 H   0  0  0  0  0  0  0  0  0  0  0  0
    4.6219   -4.3700    8.1711 H   0  0  0  0  0  0  0  0  0  0  0  0
    0.2976   -0.0934    4.5352 H   0  0  0  0  0  0  0  0  0  0  0  0
    1.8140   -0.0281    3.6038 H   0  0  0  0  0  0  0  0  0  0  0  0
   -0.0369    1.0742    2.3723 H   0  0  0  0  0  0  0  0  0  0  0  0
   -0.9782   -0.4345    2.4374 H   0  0  0  0  0  0  0  0  0  0  0  0
  1  2  1  0
  1 27  1  6
  1 28  1  0
  1 29  1  0
  2  3  1  0
  2  4  1  0
  2 30  1  1
  3 31  1  6
  3 32  1  0
  3 33  1  0
  4  5  1  6
  4 26  1  0
  4  6  1  0
  6  7  1  0
  6 34  1  1
  6 35  1  0
  7  8  1  0
  7 36  1  1
  7 37  1  0
  8  9  1  0
  8 25  1  0
  8 38  1  1
  9 10  1  0
  9 39  1  1
  9 40  1  0
 11 10  1  6
 10 41  1  0
 11 12  2  0
 11 13  2  0
 11 14  1  0
 14 15  1  0
 14 42  1  6
 14 43  1  0
 15 24  2  0
 15 16  1  0
 16 17  2  0
 16 44  1  0
 17 18  1  0
 17 45  1  0
 18 19  1  0
 18 23  2  0
 19 20  1  1
 19 21  1  0
 19 22  1  0
 23 24  1  0
 23 46  1  0
 24 47  1  0
 25 26  1  0
 25 48  1  1
 25 49  1  0
 26 50  1  6
 26 51  1  0
M  CHG  1   4   1
M  END
$$$$
