ZINC000038556507
     RDKit          3D

 60 62  0  0  0  0  0  0  0  0999 V2000
   -0.0173    1.4248    0.0099 C   0  0  1  0  0  0  0  0  0  0  0  0
    0.0021   -0.0041    0.0020 O   0  0  0  0  0  0  0  0  0  0  0  0
    0.6058   -0.6071   -1.0557 C   0  0  0  0  0  0  0  0  0  0  0  0
    1.1729    0.1605   -2.0622 C   0  0  0  0  0  0  0  0  0  0  0  0
    1.7865   -0.4550   -3.1363 C   0  0  0  0  0  0  0  0  0  0  0  0
    1.8352   -1.8346   -3.2086 C   0  0  0  0  0  0  0  0  0  0  0  0
    2.6179   -2.6165   -4.5799 S   0  0  1  0  0  0  0  0  0  0  0  0
    2.0536   -3.9171   -4.6761 O   0  0  0  0  0  0  0  0  0  0  0  0
    2.5918   -1.6772   -5.6459 O   0  0  0  0  0  0  0  0  0  0  0  0
    4.2113   -2.8264   -4.1806 N   0  0  0  0  0  0  0  0  0  0  0  0
    4.6429   -4.0563   -3.5117 C   0  0  1  0  0  0  0  0  0  0  0  0
    5.1513   -5.0530   -4.5552 C   0  0  1  0  0  0  0  0  0  0  0  0
    5.5953   -6.3181   -3.8671 C   0  0  0  0  0  0  0  0  0  0  0  0
    6.9022   -6.4482   -3.4360 C   0  0  0  0  0  0  0  0  0  0  0  0
    7.3095   -7.6087   -2.8048 C   0  0  0  0  0  0  0  0  0  0  0  0
    6.4097   -8.6388   -2.6043 C   0  0  0  0  0  0  0  0  0  0  0  0
    5.1025   -8.5082   -3.0347 C   0  0  0  0  0  0  0  0  0  0  0  0
    4.6942   -7.3461   -3.6620 C   0  0  0  0  0  0  0  0  0  0  0  0
    5.1893   -1.7823   -4.4963 C   0  0  1  0  0  0  0  0  0  0  0  0
    5.3782   -0.8915   -3.2955 C   0  0  0  0  0  0  0  0  0  0  0  0
    4.7571   -1.1075   -2.2765 O   0  0  0  0  0  0  0  0  0  0  0  0
    6.2374    0.1453   -3.3541 N   0  0  0  0  0  0  0  0  0  0  0  0
    6.4211    1.0113   -2.1869 C   0  0  1  0  0  0  0  0  0  0  0  0
    7.5189    0.4351   -1.2690 C   0  0  1  0  0  0  0  0  0  0  0  0
    8.8032    1.1901   -1.6928 C   0  0  1  0  0  0  0  0  0  0  0  0
    8.2820    2.6219   -1.9710 C   0  0  1  0  0  0  0  0  0  0  0  0
    6.9063    2.4016   -2.6332 C   0  0  1  0  0  0  0  0  0  0  0  0
    1.2709   -2.6022   -2.2062 C   0  0  0  0  0  0  0  0  0  0  0  0
    0.6609   -1.9917   -1.1277 C   0  0  0  0  0  0  0  0  0  0  0  0
    0.0467   -2.8287   -0.0354 C   0  0  1  0  0  0  0  0  0  0  0  0
    1.0053    1.8021    0.0021 H   0  0  0  0  0  0  0  0  0  0  0  0
   -0.5445    1.7859   -0.8732 H   0  0  0  0  0  0  0  0  0  0  0  0
   -0.5275    1.7763    0.9067 H   0  0  0  0  0  0  0  0  0  0  0  0
    1.1346    1.2384   -2.0066 H   0  0  0  0  0  0  0  0  0  0  0  0
    2.2283    0.1423   -3.9203 H   0  0  0  0  0  0  0  0  0  0  0  0
    5.4436   -3.8258   -2.8090 H   0  0  0  0  0  0  0  0  0  0  0  0
    3.8011   -4.4917   -2.9733 H   0  0  0  0  0  0  0  0  0  0  0  0
    4.3506   -5.2834   -5.2580 H   0  0  0  0  0  0  0  0  0  0  0  0
    5.9931   -4.6176   -5.0937 H   0  0  0  0  0  0  0  0  0  0  0  0
    7.6052   -5.6434   -3.5926 H   0  0  0  0  0  0  0  0  0  0  0  0
    8.3307   -7.7106   -2.4686 H   0  0  0  0  0  0  0  0  0  0  0  0
    6.7281   -9.5457   -2.1118 H   0  0  0  0  0  0  0  0  0  0  0  0
    4.3996   -9.3132   -2.8784 H   0  0  0  0  0  0  0  0  0  0  0  0
    3.6729   -7.2441   -3.9982 H   0  0  0  0  0  0  0  0  0  0  0  0
    6.1410   -2.2437   -4.7598 H   0  0  0  0  0  0  0  0  0  0  0  0
    4.8285   -1.1885   -5.3361 H   0  0  0  0  0  0  0  0  0  0  0  0
    6.7341    0.3180   -4.1692 H   0  0  0  0  0  0  0  0  0  0  0  0
    5.4837    1.1014   -1.6380 H   0  0  0  0  0  0  0  0  0  0  0  0
    7.2859    0.6359   -0.2232 H   0  0  0  0  0  0  0  0  0  0  0  0
    7.6331   -0.6358   -1.4366 H   0  0  0  0  0  0  0  0  0  0  0  0
    9.5332    1.1952   -0.8833 H   0  0  0  0  0  0  0  0  0  0  0  0
    9.2289    0.7518   -2.5955 H   0  0  0  0  0  0  0  0  0  0  0  0
    8.1723    3.1758   -1.0386 H   0  0  0  0  0  0  0  0  0  0  0  0
    8.9531    3.1468   -2.6509 H   0  0  0  0  0  0  0  0  0  0  0  0
    7.0051    2.4320   -3.7183 H   0  0  0  0  0  0  0  0  0  0  0  0
    6.2048    3.1666   -2.3002 H   0  0  0  0  0  0  0  0  0  0  0  0
    1.3105   -3.6799   -2.2647 H   0  0  0  0  0  0  0  0  0  0  0  0
    0.7936   -3.0283    0.7329 H   0  0  0  0  0  0  0  0  0  0  0  0
   -0.7932   -2.2915    0.4052 H   0  0  0  0  0  0  0  0  0  0  0  0
   -0.3047   -3.7717   -0.4543 H   0  0  0  0  0  0  0  0  0  0  0  0
  1  2  1  0
  1 31  1  6
  1 32  1  0
  1 33  1  0
  2  3  1  0
  3 29  2  0
  3  4  1  0
  4  5  2  0
  4 34  1  0
  5  6  1  0
  5 35  1  0
  6  7  1  0
  6 28  2  0
  7  8  2  0
  7  9  2  0
  7 10  1  1
 10 11  1  0
 10 19  1  0
 11 12  1  0
 11 36  1  1
 11 37  1  0
 12 13  1  0
 12 38  1  6
 12 39  1  0
 13 18  2  0
 13 14  1  0
 14 15  2  0
 14 40  1  0
 15 16  1  0
 15 41  1  0
 16 17  2  0
 16 42  1  0
 17 18  1  0
 17 43  1  0
 18 44  1  0
 19 20  1  0
 19 45  1  6
 19 46  1  0
 20 21  2  0
 20 22  1  0
 22 23  1  0
 22 47  1  0
 23 27  1  0
 23 24  1  0
 23 48  1  1
 24 25  1  0
 24 49  1  1
 24 50  1  0
 25 26  1  0
 25 51  1  1
 25 52  1  0
 26 27  1  0
 26 53  1  1
 26 54  1  0
 27 55  1  6
 27 56  1  0
 28 29  1  0
 28 57  1  0
 29 30  1  0
 30 58  1  1
 30 59  1  0
 30 60  1  0
M  END
$$$$
