ZINC000013681610
     RDKit          3D

 49 51  0  0  1  0  0  0  0  0999 V2000
   -0.0896    1.8527   -0.3915 C   0  0  1  0  0  0  0  0  0  0  0  0
   -0.1774    0.4264   -0.4008 O   0  0  0  0  0  0  0  0  0  0  0  0
    0.4522   -0.2243   -1.4155 C   0  0  0  0  0  0  0  0  0  0  0  0
    1.1437    0.4938   -2.3773 C   0  0  0  0  0  0  0  0  0  0  0  0
    1.7837   -0.1694   -3.4082 C   0  0  0  0  0  0  0  0  0  0  0  0
    1.7350   -1.5486   -3.4822 C   0  0  0  0  0  0  0  0  0  0  0  0
    2.4338   -2.2663   -4.6081 C   0  0  1  0  0  0  0  0  0  0  0  0
    3.8688   -2.5943   -4.1909 C   0  0  1  0  0  0  0  0  0  0  0  0
    4.5481   -3.2920   -5.2854 N   0  0  0  0  0  0  0  0  0  0  0  0
    4.5514   -4.6207   -5.4425 C   0  0  0  0  0  0  0  0  0  0  0  0
    3.9889   -5.3914   -4.6896 O   0  0  0  0  0  0  0  0  0  0  0  0
    5.2468   -5.0083   -6.5269 N   0  0  0  0  0  0  0  0  0  0  0  0
    5.7625   -3.7809   -7.1576 C   0  0  2  0  0  0  0  0  0  0  0  0
    5.2282   -3.6347   -8.5138 N   0  0  0  0  0  0  0  0  0  0  0  0
    5.4100   -2.4826   -9.1891 C   0  0  0  0  0  0  0  0  0  0  0  0
    6.0863   -1.5981   -8.7083 O   0  0  0  0  0  0  0  0  0  0  0  0
    4.7730   -2.2935  -10.5417 C   0  0  1  0  0  0  0  0  0  0  0  0
    3.6443   -1.2666  -10.6536 C   0  0  1  0  0  0  0  0  0  0  0  0
    5.0169   -0.9635  -11.2577 C   0  0  1  0  0  0  0  0  0  0  0  0
    7.2923   -3.7899   -7.1814 C   0  0  1  0  0  0  0  0  0  0  0  0
    7.7396   -4.8173   -8.0190 F   0  0  0  0  0  0  0  0  0  0  0  0
    7.7584   -2.5611   -7.6609 F   0  0  0  0  0  0  0  0  0  0  0  0
    7.7776   -3.9995   -5.8862 F   0  0  0  0  0  0  0  0  0  0  0  0
    5.2422   -2.6744   -6.2617 C   0  0  0  0  0  0  0  0  0  0  0  0
    5.4185   -1.4821   -6.3929 O   0  0  0  0  0  0  0  0  0  0  0  0
    1.0468   -2.2716   -2.5251 C   0  0  0  0  0  0  0  0  0  0  0  0
    0.4079   -1.6137   -1.4868 C   0  0  0  0  0  0  0  0  0  0  0  0
   -0.2693   -2.3232   -0.5448 O   0  0  0  0  0  0  0  0  0  0  0  0
   -0.2810   -3.7450   -0.6874 C   0  0  1  0  0  0  0  0  0  0  0  0
    0.9565    2.1519   -0.3269 H   0  0  0  0  0  0  0  0  0  0  0  0
   -0.5251    2.2495   -1.3086 H   0  0  0  0  0  0  0  0  0  0  0  0
   -0.6334    2.2446    0.4681 H   0  0  0  0  0  0  0  0  0  0  0  0
    1.1827    1.5717   -2.3222 H   0  0  0  0  0  0  0  0  0  0  0  0
    2.3225    0.3917   -4.1574 H   0  0  0  0  0  0  0  0  0  0  0  0
    1.9016   -3.1898   -4.8360 H   0  0  0  0  0  0  0  0  0  0  0  0
    2.4491   -1.6282   -5.4916 H   0  0  0  0  0  0  0  0  0  0  0  0
    4.4010   -1.6708   -3.9629 H   0  0  0  0  0  0  0  0  0  0  0  0
    3.8535   -3.2324   -3.3074 H   0  0  0  0  0  0  0  0  0  0  0  0
    5.3826   -5.9185   -6.8334 H   0  0  0  0  0  0  0  0  0  0  0  0
    4.7437   -4.3671   -8.9258 H   0  0  0  0  0  0  0  0  0  0  0  0
    4.7006   -3.1904  -11.1568 H   0  0  0  0  0  0  0  0  0  0  0  0
    2.8290   -1.4878  -11.3424 H   0  0  0  0  0  0  0  0  0  0  0  0
    3.3625   -0.7278   -9.7489 H   0  0  0  0  0  0  0  0  0  0  0  0
    5.6382   -0.2254  -10.7505 H   0  0  0  0  0  0  0  0  0  0  0  0
    5.1047   -0.9855  -12.3439 H   0  0  0  0  0  0  0  0  0  0  0  0
    1.0102   -3.3493   -2.5852 H   0  0  0  0  0  0  0  0  0  0  0  0
   -0.8540   -4.1872    0.1276 H   0  0  0  0  0  0  0  0  0  0  0  0
   -0.7394   -4.0108   -1.6399 H   0  0  0  0  0  0  0  0  0  0  0  0
    0.7416   -4.1214   -0.6586 H   0  0  0  0  0  0  0  0  0  0  0  0
  1  2  1  0
  1 30  1  1
  1 31  1  0
  1 32  1  0
  2  3  1  0
  3 27  2  0
  3  4  1  0
  4  5  2  0
  4 33  1  0
  5  6  1  0
  5 34  1  0
  6  7  1  0
  6 26  2  0
  7  8  1  0
  7 35  1  6
  7 36  1  0
  8  9  1  0
  8 37  1  1
  8 38  1  0
  9 24  1  0
  9 10  1  0
 10 11  2  0
 10 12  1  0
 12 13  1  0
 12 39  1  0
 13 14  1  6
 13 20  1  0
 13 24  1  0
 14 15  1  0
 14 40  1  0
 15 16  2  0
 15 17  1  0
 17 19  1  0
 17 18  1  0
 17 41  1  6
 18 19  1  0
 18 42  1  6
 18 43  1  0
 19 44  1  1
 19 45  1  0
 20 21  1  6
 20 22  1  0
 20 23  1  0
 24 25  2  0
 26 27  1  0
 26 46  1  0
 27 28  1  0
 28 29  1  0
 29 47  1  1
 29 48  1  0
 29 49  1  0
M  END
$$$$
