ZINC000409184166
     RDKit          3D

 54 55  0  0  0  0  0  0  0  0999 V2000
   -0.0173    1.4248    0.0099 C   0  0  1  0  0  0  0  0  0  0  0  0
    0.0021   -0.0041    0.0020 O   0  0  0  0  0  0  0  0  0  0  0  0
    0.6518   -0.5703   -1.1379 C   0  0  1  0  0  0  0  0  0  0  0  0
    0.6131   -2.0967   -1.0411 C   0  0  1  0  0  0  0  0  0  0  0  0
    1.3087   -2.7029   -2.2615 C   0  0  1  0  0  0  0  0  0  0  0  0
    1.2717   -4.1645   -2.1688 N   0  0  0  0  0  0  0  0  0  0  0  0
    1.8279   -4.9157   -3.1398 C   0  0  0  0  0  0  0  0  0  0  0  0
    2.3592   -4.3816   -4.0903 O   0  0  0  0  0  0  0  0  0  0  0  0
    1.7898   -6.4192   -3.0444 C   0  0  1  0  0  0  0  0  0  0  0  0
    2.4559   -6.9996   -4.2130 N   0  0  0  0  0  0  0  0  0  0  0  0
    3.9101   -7.1769   -4.2144 C   0  0  1  0  0  0  0  0  0  0  0  0
    4.2576   -8.4830   -3.5479 C   0  0  0  0  0  0  0  0  0  0  0  0
    4.4804   -8.5254   -2.1843 C   0  0  0  0  0  0  0  0  0  0  0  0
    4.7992   -9.7236   -1.5730 C   0  0  0  0  0  0  0  0  0  0  0  0
    4.8947  -10.8794   -2.3252 C   0  0  0  0  0  0  0  0  0  0  0  0
    4.6711  -10.8372   -3.6886 C   0  0  0  0  0  0  0  0  0  0  0  0
    4.3481   -9.6398   -4.2993 C   0  0  0  0  0  0  0  0  0  0  0  0
    1.5650   -7.4555   -5.5324 S   0  0  1  0  0  0  0  0  0  0  0  0
    2.3330   -8.4366   -6.2157 O   0  0  0  0  0  0  0  0  0  0  0  0
    0.2444   -7.6903   -5.0632 O   0  0  0  0  0  0  0  0  0  0  0  0
    1.4712   -6.0611   -6.6055 C   0  0  0  0  0  0  0  0  0  0  0  0
    0.4365   -5.1541   -6.4697 C   0  0  0  0  0  0  0  0  0  0  0  0
    0.3607   -4.0600   -7.3097 C   0  0  0  0  0  0  0  0  0  0  0  0
    1.3242   -3.8715   -8.2899 C   0  0  0  0  0  0  0  0  0  0  0  0
    1.2521   -2.7958   -9.1172 O   0  0  0  0  0  0  0  0  0  0  0  0
    2.2784   -2.6656  -10.1031 C   0  0  1  0  0  0  0  0  0  0  0  0
    2.3616   -4.7828   -8.4239 C   0  0  0  0  0  0  0  0  0  0  0  0
    2.4356   -5.8726   -7.5782 C   0  0  0  0  0  0  0  0  0  0  0  0
    1.0053    1.8021    0.0021 H   0  0  0  0  0  0  0  0  0  0  0  0
   -0.5445    1.7859   -0.8732 H   0  0  0  0  0  0  0  0  0  0  0  0
   -0.5275    1.7763    0.9067 H   0  0  0  0  0  0  0  0  0  0  0  0
    0.1385   -0.2506   -2.0447 H   0  0  0  0  0  0  0  0  0  0  0  0
    1.6883   -0.2344   -1.1694 H   0  0  0  0  0  0  0  0  0  0  0  0
    1.1264   -2.4164   -0.1342 H   0  0  0  0  0  0  0  0  0  0  0  0
   -0.4234   -2.4326   -1.0095 H   0  0  0  0  0  0  0  0  0  0  0  0
    0.7954   -2.3833   -3.1684 H   0  0  0  0  0  0  0  0  0  0  0  0
    2.3452   -2.3671   -2.2930 H   0  0  0  0  0  0  0  0  0  0  0  0
    0.8468   -4.5917   -1.4086 H   0  0  0  0  0  0  0  0  0  0  0  0
    2.3031   -6.7389   -2.1376 H   0  0  0  0  0  0  0  0  0  0  0  0
    0.7533   -6.7551   -3.0129 H   0  0  0  0  0  0  0  0  0  0  0  0
    4.2742   -7.1850   -5.2418 H   0  0  0  0  0  0  0  0  0  0  0  0
    4.3767   -6.3558   -3.6701 H   0  0  0  0  0  0  0  0  0  0  0  0
    4.4058   -7.6224   -1.5966 H   0  0  0  0  0  0  0  0  0  0  0  0
    4.9739   -9.7565   -0.5077 H   0  0  0  0  0  0  0  0  0  0  0  0
    5.1445  -11.8153   -1.8476 H   0  0  0  0  0  0  0  0  0  0  0  0
    4.7460  -11.7401   -4.2764 H   0  0  0  0  0  0  0  0  0  0  0  0
    4.1733   -9.6068   -5.3646 H   0  0  0  0  0  0  0  0  0  0  0  0
   -0.3133   -5.3012   -5.7064 H   0  0  0  0  0  0  0  0  0  0  0  0
   -0.4481   -3.3522   -7.2037 H   0  0  0  0  0  0  0  0  0  0  0  0
    2.2679   -3.5384  -10.7559 H   0  0  0  0  0  0  0  0  0  0  0  0
    2.1021   -1.7672  -10.6946 H   0  0  0  0  0  0  0  0  0  0  0  0
    3.2480   -2.5918   -9.6106 H   0  0  0  0  0  0  0  0  0  0  0  0
    3.1127   -4.6384   -9.1864 H   0  0  0  0  0  0  0  0  0  0  0  0
    3.2432   -6.5821   -7.6818 H   0  0  0  0  0  0  0  0  0  0  0  0
  1  2  1  0
  1 29  1  6
  1 30  1  0
  1 31  1  0
  2  3  1  0
  3  4  1  0
  3 32  1  6
  3 33  1  0
  4  5  1  0
  4 34  1  1
  4 35  1  0
  5  6  1  0
  5 36  1  6
  5 37  1  0
  6  7  1  0
  6 38  1  0
  7  8  2  0
  7  9  1  0
  9 10  1  0
  9 39  1  1
  9 40  1  0
 10 11  1  0
 18 10  1  1
 11 12  1  0
 11 41  1  6
 11 42  1  0
 12 17  2  0
 12 13  1  0
 13 14  2  0
 13 43  1  0
 14 15  1  0
 14 44  1  0
 15 16  2  0
 15 45  1  0
 16 17  1  0
 16 46  1  0
 17 47  1  0
 18 19  2  0
 18 20  2  0
 18 21  1  0
 21 28  2  0
 21 22  1  0
 22 23  2  0
 22 48  1  0
 23 24  1  0
 23 49  1  0
 24 25  1  0
 24 27  2  0
 25 26  1  0
 26 50  1  6
 26 51  1  0
 26 52  1  0
 27 28  1  0
 27 53  1  0
 28 54  1  0
M  END
$$$$
