ZINC000408621049
     RDKit          3D

 53 54  0  0  1  0  0  0  0  0999 V2000
   -0.0173    1.4248    0.0099 C   0  0  1  0  0  0  0  0  0  0  0  0
    0.0021   -0.0041    0.0020 O   0  0  0  0  0  0  0  0  0  0  0  0
    0.6518   -0.5703   -1.1379 C   0  0  1  0  0  0  0  0  0  0  0  0
    0.6131   -2.0967   -1.0411 C   0  0  2  0  0  0  0  0  0  0  0  0
    1.0288   -2.5292   -1.9512 H   0  0  0  0  0  0  0  0  0  0  0  0
   -0.8350   -2.5604   -0.8713 C   0  0  1  0  0  0  0  0  0  0  0  0
    1.4039   -2.5331    0.1124 N   0  0  0  0  0  0  0  0  0  0  0  0
    1.9385   -3.7701    0.1337 C   0  0  0  0  0  0  0  0  0  0  0  0
    1.7649   -4.5220   -0.8019 O   0  0  0  0  0  0  0  0  0  0  0  0
    2.7520   -4.2190    1.3202 C   0  0  1  0  0  0  0  0  0  0  0  0
    3.2178   -5.5908    1.1021 N   0  0  0  0  0  0  0  0  0  0  0  0
    4.4475   -5.8351    0.3443 C   0  0  1  0  0  0  0  0  0  0  0  0
    5.6348   -5.7323    1.2666 C   0  0  0  0  0  0  0  0  0  0  0  0
    6.2607   -4.5141    1.4545 C   0  0  0  0  0  0  0  0  0  0  0  0
    7.3498   -4.4198    2.3006 C   0  0  0  0  0  0  0  0  0  0  0  0
    7.8128   -5.5436    2.9591 C   0  0  0  0  0  0  0  0  0  0  0  0
    9.0004   -5.4409    3.8811 C   0  0  1  0  0  0  0  0  0  0  0  0
    7.1861   -6.7615    2.7723 C   0  0  0  0  0  0  0  0  0  0  0  0
    6.0946   -6.8550    1.9292 C   0  0  0  0  0  0  0  0  0  0  0  0
    2.3542   -6.8653    1.7123 S   0  0  1  0  0  0  0  0  0  0  0  0
    3.2955   -7.8948    1.9829 O   0  0  0  0  0  0  0  0  0  0  0  0
    1.4868   -6.3259    2.7001 O   0  0  0  0  0  0  0  0  0  0  0  0
    1.3213   -7.4636    0.4162 C   0  0  0  0  0  0  0  0  0  0  0  0
    0.0519   -6.9428    0.2478 C   0  0  0  0  0  0  0  0  0  0  0  0
   -0.7584   -7.4122   -0.7690 C   0  0  0  0  0  0  0  0  0  0  0  0
   -0.2992   -8.4020   -1.6177 C   0  0  0  0  0  0  0  0  0  0  0  0
    0.9705   -8.9221   -1.4499 C   0  0  0  0  0  0  0  0  0  0  0  0
    1.7824   -8.4497   -0.4357 C   0  0  0  0  0  0  0  0  0  0  0  0
    1.0053    1.8021    0.0021 H   0  0  0  0  0  0  0  0  0  0  0  0
   -0.5445    1.7859   -0.8732 H   0  0  0  0  0  0  0  0  0  0  0  0
   -0.5275    1.7763    0.9067 H   0  0  0  0  0  0  0  0  0  0  0  0
    0.1385   -0.2506   -2.0447 H   0  0  0  0  0  0  0  0  0  0  0  0
    1.6883   -0.2344   -1.1694 H   0  0  0  0  0  0  0  0  0  0  0  0
   -0.8626   -3.6479   -0.8024 H   0  0  0  0  0  0  0  0  0  0  0  0
   -1.2507   -2.1280    0.0388 H   0  0  0  0  0  0  0  0  0  0  0  0
   -1.4235   -2.2357   -1.7295 H   0  0  0  0  0  0  0  0  0  0  0  0
    1.5428   -1.9317    0.8607 H   0  0  0  0  0  0  0  0  0  0  0  0
    3.6107   -3.5589    1.4427 H   0  0  0  0  0  0  0  0  0  0  0  0
    2.1352   -4.1832    2.2182 H   0  0  0  0  0  0  0  0  0  0  0  0
    4.4126   -6.8328   -0.0932 H   0  0  0  0  0  0  0  0  0  0  0  0
    4.5386   -5.0934   -0.4493 H   0  0  0  0  0  0  0  0  0  0  0  0
    5.8989   -3.6361    0.9400 H   0  0  0  0  0  0  0  0  0  0  0  0
    7.8392   -3.4682    2.4469 H   0  0  0  0  0  0  0  0  0  0  0  0
    8.6580   -5.2138    4.8907 H   0  0  0  0  0  0  0  0  0  0  0  0
    9.5403   -6.3878    3.8849 H   0  0  0  0  0  0  0  0  0  0  0  0
    9.6618   -4.6469    3.5346 H   0  0  0  0  0  0  0  0  0  0  0  0
    7.5476   -7.6394    3.2871 H   0  0  0  0  0  0  0  0  0  0  0  0
    5.6050   -7.8065    1.7832 H   0  0  0  0  0  0  0  0  0  0  0  0
   -0.3068   -6.1695    0.9109 H   0  0  0  0  0  0  0  0  0  0  0  0
   -1.7505   -7.0059   -0.9001 H   0  0  0  0  0  0  0  0  0  0  0  0
   -0.9326   -8.7692   -2.4116 H   0  0  0  0  0  0  0  0  0  0  0  0
    1.3291   -9.6957   -2.1127 H   0  0  0  0  0  0  0  0  0  0  0  0
    2.7745   -8.8560   -0.3046 H   0  0  0  0  0  0  0  0  0  0  0  0
  1  2  1  0
  1 29  1  6
  1 30  1  0
  1 31  1  0
  2  3  1  0
  3  4  1  0
  3 32  1  6
  3 33  1  0
  4  5  1  6
  4  6  1  0
  4  7  1  0
  6 34  1  1
  6 35  1  0
  6 36  1  0
  7  8  1  0
  7 37  1  0
  8  9  2  0
  8 10  1  0
 10 11  1  0
 10 38  1  1
 10 39  1  0
 11 12  1  0
 20 11  1  6
 12 13  1  0
 12 40  1  6
 12 41  1  0
 13 19  2  0
 13 14  1  0
 14 15  2  0
 14 42  1  0
 15 16  1  0
 15 43  1  0
 16 17  1  0
 16 18  2  0
 17 44  1  1
 17 45  1  0
 17 46  1  0
 18 19  1  0
 18 47  1  0
 19 48  1  0
 20 21  2  0
 20 22  2  0
 20 23  1  0
 23 28  2  0
 23 24  1  0
 24 25  2  0
 24 49  1  0
 25 26  1  0
 25 50  1  0
 26 27  2  0
 26 51  1  0
 27 28  1  0
 27 52  1  0
 28 53  1  0
M  END
$$$$
