ZINC000136675139
     RDKit          3D

 29 30  0  0  0  0  0  0  0  0999 V2000
   -0.0184    1.5028    0.0103 C   0  0  1  0  0  0  0  0  0  0  0  0
    0.0021   -0.0041    0.0020 C   0  0  0  0  0  0  0  0  0  0  0  0
    0.0057   -0.6887   -1.1989 C   0  0  0  0  0  0  0  0  0  0  0  0
    0.0245   -2.0709   -1.2065 C   0  0  0  0  0  0  0  0  0  0  0  0
    0.0400   -2.7685   -0.0132 C   0  0  0  0  0  0  0  0  0  0  0  0
    0.0633   -4.5303   -0.0229 S   0  0  1  0  0  0  0  0  0  0  0  0
   -0.4690   -4.9455    1.2275 O   0  0  0  0  0  0  0  0  0  0  0  0
   -0.4824   -4.9319   -1.2719 O   0  0  0  0  0  0  0  0  0  0  0  0
    1.6514   -4.9995   -0.0340 N   0  0  0  0  0  0  0  0  0  0  0  0
    2.4090   -5.2128   -1.1473 C   0  0  0  0  0  0  0  0  0  0  0  0
    3.6445   -5.5816   -0.7523 C   0  0  0  0  0  0  0  0  0  0  0  0
    3.6499   -5.5965    0.6566 C   0  0  0  0  0  0  0  0  0  0  0  0
    4.8182   -5.9501    1.5404 C   0  0  1  0  0  0  0  0  0  0  0  0
    5.9241   -6.2700    0.7456 F   0  0  0  0  0  0  0  0  0  0  0  0
    5.1315   -4.8589    2.3579 F   0  0  0  0  0  0  0  0  0  0  0  0
    4.4835   -7.0496    2.3381 F   0  0  0  0  0  0  0  0  0  0  0  0
    2.4192   -5.2305    1.0688 C   0  0  0  0  0  0  0  0  0  0  0  0
    0.0378   -2.0839    1.1877 C   0  0  0  0  0  0  0  0  0  0  0  0
    0.0229   -0.7016    1.1953 C   0  0  0  0  0  0  0  0  0  0  0  0
    1.0042    1.8801    0.0026 H   0  0  0  0  0  0  0  0  0  0  0  0
   -0.5455    1.8639   -0.8728 H   0  0  0  0  0  0  0  0  0  0  0  0
   -0.5286    1.8543    0.9071 H   0  0  0  0  0  0  0  0  0  0  0  0
   -0.0064   -0.1436   -2.1312 H   0  0  0  0  0  0  0  0  0  0  0  0
    0.0266   -2.6057   -2.1448 H   0  0  0  0  0  0  0  0  0  0  0  0
    2.0768   -5.1053   -2.1693 H   0  0  0  0  0  0  0  0  0  0  0  0
    4.4768   -5.8215   -1.3973 H   0  0  0  0  0  0  0  0  0  0  0  0
    2.0954   -5.1429    2.0954 H   0  0  0  0  0  0  0  0  0  0  0  0
    0.0503   -2.6289    2.1200 H   0  0  0  0  0  0  0  0  0  0  0  0
    0.0211   -0.1667    2.1335 H   0  0  0  0  0  0  0  0  0  0  0  0
  1  2  1  0
  1 20  1  6
  1 21  1  0
  1 22  1  0
  2 19  2  0
  2  3  1  0
  3  4  2  0
  3 23  1  0
  4  5  1  0
  4 24  1  0
  5  6  1  0
  5 18  2  0
  6  7  2  0
  6  8  2  0
  6  9  1  6
  9 17  1  0
  9 10  1  0
 10 11  2  0
 10 25  1  0
 11 12  1  0
 11 26  1  0
 12 13  1  0
 12 17  2  0
 13 14  1  6
 13 15  1  0
 13 16  1  0
 17 27  1  0
 18 19  1  0
 18 28  1  0
 19 29  1  0
M  END
$$$$
