ZINC000007971015
     RDKit          3D

 47 49  0  0  1  0  0  0  0  0999 V2000
    0.0083    0.7485   -1.2620 O   0  0  0  0  0  0  0  0  0  0  0  0
   -0.3227    1.4799   -0.3528 C   0  0  0  0  0  0  0  0  0  0  0  0
    0.5726    1.8269    0.5929 N   0  0  0  0  0  0  0  0  0  0  0  0
    1.8575    1.2730    0.5769 C   0  0  0  0  0  0  0  0  0  0  0  0
    2.4855    1.0070   -0.6329 C   0  0  0  0  0  0  0  0  0  0  0  0
    3.7537    0.4603   -0.6453 C   0  0  0  0  0  0  0  0  0  0  0  0
    4.3979    0.1772    0.5451 C   0  0  0  0  0  0  0  0  0  0  0  0
    5.7815   -0.4198    0.5278 C   0  0  1  0  0  0  0  0  0  0  0  0
    6.7323    0.6064    0.5275 F   0  0  0  0  0  0  0  0  0  0  0  0
    5.9586   -1.2193    1.6621 F   0  0  0  0  0  0  0  0  0  0  0  0
    5.9380   -1.2009   -0.6223 F   0  0  0  0  0  0  0  0  0  0  0  0
    3.7755    0.4413    1.7513 C   0  0  0  0  0  0  0  0  0  0  0  0
    2.5096    0.9933    1.7706 C   0  0  0  0  0  0  0  0  0  0  0  0
   -1.7334    2.0055   -0.2841 C   0  0  1  0  0  0  0  0  0  0  0  0
   -1.7887    2.8083    0.4511 H   0  0  0  0  0  0  0  0  0  0  0  0
   -2.1505    2.5381   -1.6585 C   0  0  1  0  0  0  0  0  0  0  0  0
   -3.6263    2.9414   -1.6184 C   0  0  1  0  0  0  0  0  0  0  0  0
   -4.4833    1.7154   -1.2950 C   0  0  1  0  0  0  0  0  0  0  0  0
   -4.0926    1.1735    0.0836 C   0  0  1  0  0  0  0  0  0  0  0  0
   -2.6451    0.9201    0.1024 N   0  0  0  0  0  0  0  0  0  0  0  0
   -2.0537   -0.5622    0.5445 S   0  0  1  0  0  0  0  0  0  0  0  0
   -0.7258   -0.3445    1.0010 O   0  0  0  0  0  0  0  0  0  0  0  0
   -3.0590   -1.1740    1.3410 O   0  0  0  0  0  0  0  0  0  0  0  0
   -1.9232   -1.5302   -0.9220 C   0  0  0  0  0  0  0  0  0  0  0  0
   -3.0517   -2.1117   -1.4691 C   0  0  0  0  0  0  0  0  0  0  0  0
   -2.9493   -2.8712   -2.6195 C   0  0  0  0  0  0  0  0  0  0  0  0
   -1.7185   -3.0488   -3.2232 C   0  0  0  0  0  0  0  0  0  0  0  0
   -0.5902   -2.4665   -2.6767 C   0  0  0  0  0  0  0  0  0  0  0  0
   -0.6932   -1.7035   -1.5286 C   0  0  0  0  0  0  0  0  0  0  0  0
    0.3263    2.4607    1.2847 H   0  0  0  0  0  0  0  0  0  0  0  0
    1.9826    1.2272   -1.5629 H   0  0  0  0  0  0  0  0  0  0  0  0
    4.2427    0.2532   -1.5858 H   0  0  0  0  0  0  0  0  0  0  0  0
    4.2813    0.2191    2.6794 H   0  0  0  0  0  0  0  0  0  0  0  0
    2.0240    1.1994    2.7130 H   0  0  0  0  0  0  0  0  0  0  0  0
   -1.5428    3.4067   -1.9119 H   0  0  0  0  0  0  0  0  0  0  0  0
   -2.0060    1.7609   -2.4090 H   0  0  0  0  0  0  0  0  0  0  0  0
   -3.7745    3.7008   -0.8507 H   0  0  0  0  0  0  0  0  0  0  0  0
   -3.9193    3.3437   -2.5881 H   0  0  0  0  0  0  0  0  0  0  0  0
   -5.5359    1.9985   -1.2896 H   0  0  0  0  0  0  0  0  0  0  0  0
   -4.3169    0.9460   -2.0489 H   0  0  0  0  0  0  0  0  0  0  0  0
   -4.3428    1.9079    0.8492 H   0  0  0  0  0  0  0  0  0  0  0  0
   -4.6289    0.2443    0.2764 H   0  0  0  0  0  0  0  0  0  0  0  0
   -4.0133   -1.9729   -0.9974 H   0  0  0  0  0  0  0  0  0  0  0  0
   -3.8309   -3.3260   -3.0465 H   0  0  0  0  0  0  0  0  0  0  0  0
   -1.6384   -3.6427   -4.1217 H   0  0  0  0  0  0  0  0  0  0  0  0
    0.3715   -2.6056   -3.1482 H   0  0  0  0  0  0  0  0  0  0  0  0
    0.1884   -1.2486   -1.1016 H   0  0  0  0  0  0  0  0  0  0  0  0
  1  2  2  0
  2  3  1  0
  2 14  1  0
  3  4  1  0
  3 30  1  0
  4 13  2  0
  4  5  1  0
  5  6  2  0
  5 31  1  0
  6  7  1  0
  6 32  1  0
  7  8  1  0
  7 12  2  0
  8  9  1  6
  8 10  1  0
  8 11  1  0
 12 13  1  0
 12 33  1  0
 13 34  1  0
 14 15  1  1
 14 20  1  0
 14 16  1  0
 16 17  1  0
 16 35  1  6
 16 36  1  0
 17 18  1  0
 17 37  1  1
 17 38  1  0
 18 19  1  0
 18 39  1  1
 18 40  1  0
 19 20  1  0
 19 41  1  1
 19 42  1  0
 21 20  1  6
 21 22  2  0
 21 23  2  0
 21 24  1  0
 24 29  2  0
 24 25  1  0
 25 26  2  0
 25 43  1  0
 26 27  1  0
 26 44  1  0
 27 28  2  0
 27 45  1  0
 28 29  1  0
 28 46  1  0
 29 47  1  0
M  END
$$$$
