ZINC000219751451
     RDKit          3D

 44 46  0  0  1  0  0  0  0  0999 V2000
   -0.0166   -0.1011   -0.7417 O   0  0  0  0  0  0  0  0  0  0  0  0
    0.0615    1.0359   -0.3268 C   0  0  0  0  0  0  0  0  0  0  0  0
    1.2688    1.5823   -0.0813 N   0  0  0  0  0  0  0  0  0  0  0  0
    2.4259    0.8045   -0.2000 C   0  0  0  0  0  0  0  0  0  0  0  0
    3.4955    1.0125    0.6609 C   0  0  0  0  0  0  0  0  0  0  0  0
    4.6363    0.2432    0.5411 C   0  0  0  0  0  0  0  0  0  0  0  0
    4.7142   -0.7332   -0.4350 C   0  0  0  0  0  0  0  0  0  0  0  0
    5.9606   -1.5705   -0.5632 C   0  0  1  0  0  0  0  0  0  0  0  0
    5.8407   -2.7109    0.2383 F   0  0  0  0  0  0  0  0  0  0  0  0
    6.1294   -1.9542   -1.8979 F   0  0  0  0  0  0  0  0  0  0  0  0
    7.0687   -0.8237   -0.1489 F   0  0  0  0  0  0  0  0  0  0  0  0
    3.6506   -0.9432   -1.2935 C   0  0  0  0  0  0  0  0  0  0  0  0
    2.5049   -0.1810   -1.1752 C   0  0  0  0  0  0  0  0  0  0  0  0
   -1.1913    1.8399   -0.0916 C   0  0  1  0  0  0  0  0  0  0  0  0
   -1.0583    2.4884    0.7743 H   0  0  0  0  0  0  0  0  0  0  0  0
   -1.5116    2.6895   -1.3395 C   0  0  1  0  0  0  0  0  0  0  0  0
   -2.5628    1.8269   -2.0867 C   0  0  1  0  0  0  0  0  0  0  0  0
   -3.3489    1.2032   -0.9066 C   0  0  1  0  0  0  0  0  0  0  0  0
   -2.3304    0.9373    0.1300 N   0  0  0  0  0  0  0  0  0  0  0  0
   -2.4522   -0.1916    1.3355 S   0  0  1  0  0  0  0  0  0  0  0  0
   -3.3184   -1.2072    0.8482 O   0  0  0  0  0  0  0  0  0  0  0  0
   -1.1273   -0.4477    1.7807 O   0  0  0  0  0  0  0  0  0  0  0  0
   -3.2909    0.5731    2.6833 C   0  0  0  0  0  0  0  0  0  0  0  0
   -2.5820    1.3271    3.5999 C   0  0  0  0  0  0  0  0  0  0  0  0
   -3.2393    1.9272    4.6573 C   0  0  0  0  0  0  0  0  0  0  0  0
   -4.6070    1.7732    4.7984 C   0  0  0  0  0  0  0  0  0  0  0  0
   -5.4333    2.5271    6.1260 Cl  0  0  0  0  0  0  0  0  0  0  0  0
   -5.3159    1.0185    3.8808 C   0  0  0  0  0  0  0  0  0  0  0  0
   -4.6583    0.4236    2.8206 C   0  0  0  0  0  0  0  0  0  0  0  0
    1.3356    2.5147    0.1776 H   0  0  0  0  0  0  0  0  0  0  0  0
    3.4356    1.7754    1.4230 H   0  0  0  0  0  0  0  0  0  0  0  0
    5.4684    0.4045    1.2103 H   0  0  0  0  0  0  0  0  0  0  0  0
    3.7145   -1.7065   -2.0549 H   0  0  0  0  0  0  0  0  0  0  0  0
    1.6746   -0.3455   -1.8460 H   0  0  0  0  0  0  0  0  0  0  0  0
   -1.9360    3.6516   -1.0524 H   0  0  0  0  0  0  0  0  0  0  0  0
   -0.6202    2.8272   -1.9515 H   0  0  0  0  0  0  0  0  0  0  0  0
   -3.2117    2.4490   -2.7031 H   0  0  0  0  0  0  0  0  0  0  0  0
   -2.0800    1.0550   -2.6859 H   0  0  0  0  0  0  0  0  0  0  0  0
   -4.0936    1.9062   -0.5332 H   0  0  0  0  0  0  0  0  0  0  0  0
   -3.8258    0.2737   -1.2176 H   0  0  0  0  0  0  0  0  0  0  0  0
   -1.5143    1.4470    3.4899 H   0  0  0  0  0  0  0  0  0  0  0  0
   -2.6853    2.5159    5.3735 H   0  0  0  0  0  0  0  0  0  0  0  0
   -6.3835    0.8977    3.9906 H   0  0  0  0  0  0  0  0  0  0  0  0
   -5.2116   -0.1653    2.1040 H   0  0  0  0  0  0  0  0  0  0  0  0
  1  2  2  0
  2  3  1  0
  2 14  1  0
  3  4  1  0
  3 30  1  0
  4 13  2  0
  4  5  1  0
  5  6  2  0
  5 31  1  0
  6  7  1  0
  6 32  1  0
  7  8  1  0
  7 12  2  0
  8  9  1  1
  8 10  1  0
  8 11  1  0
 12 13  1  0
 12 33  1  0
 13 34  1  0
 14 15  1  1
 14 19  1  0
 14 16  1  0
 16 17  1  0
 16 35  1  1
 16 36  1  0
 17 18  1  0
 17 37  1  6
 17 38  1  0
 18 19  1  0
 18 39  1  1
 18 40  1  0
 20 19  1  6
 20 21  2  0
 20 22  2  0
 20 23  1  0
 23 29  2  0
 23 24  1  0
 24 25  2  0
 24 41  1  0
 25 26  1  0
 25 42  1  0
 26 27  1  0
 26 28  2  0
 28 29  1  0
 28 43  1  0
 29 44  1  0
M  END
$$$$
