ZINC000000380223
     RDKit          3D

 31 32  0  0  0  0  0  0  0  0999 V2000
    0.0021   -0.0041    0.0020 O   0  0  0  0  0  0  0  0  0  0  0  0
   -0.0172    1.4168    0.0098 S   0  0  1  0  0  0  0  0  0  0  0  0
    1.1617    2.2101    0.0028 O   0  0  0  0  0  0  0  0  0  0  0  0
   -0.9567    1.9094   -1.3970 C   0  0  0  0  0  0  0  0  0  0  0  0
   -1.8848    1.0442   -1.9458 C   0  0  0  0  0  0  0  0  0  0  0  0
   -2.6219    1.4307   -3.0496 C   0  0  0  0  0  0  0  0  0  0  0  0
   -2.4313    2.6825   -3.6042 C   0  0  0  0  0  0  0  0  0  0  0  0
   -3.2345    3.1036   -4.8078 C   0  0  1  0  0  0  0  0  0  0  0  0
   -4.4138    3.7273   -4.3864 F   0  0  0  0  0  0  0  0  0  0  0  0
   -2.4843    3.9973   -5.5796 F   0  0  0  0  0  0  0  0  0  0  0  0
   -3.5510    1.9771   -5.5746 F   0  0  0  0  0  0  0  0  0  0  0  0
   -1.5042    3.5481   -3.0546 C   0  0  0  0  0  0  0  0  0  0  0  0
   -0.7699    3.1631   -1.9485 C   0  0  0  0  0  0  0  0  0  0  0  0
   -0.8748    1.8654    1.3536 N   0  0  0  0  0  0  0  0  0  0  0  0
   -0.6862    3.1905    1.9650 C   0  0  1  0  0  0  0  0  0  0  0  0
   -2.0636    3.8365    2.1535 C   0  0  1  0  0  0  0  0  0  0  0  0
   -2.9169    2.9292    2.8551 O   0  0  0  0  0  0  0  0  0  0  0  0
   -3.1690    1.7060    2.1593 C   0  0  1  0  0  0  0  0  0  0  0  0
   -1.8524    0.9531    1.9678 C   0  0  1  0  0  0  0  0  0  0  0  0
   -2.0336    0.0662   -1.5125 H   0  0  0  0  0  0  0  0  0  0  0  0
   -3.3464    0.7545   -3.4788 H   0  0  0  0  0  0  0  0  0  0  0  0
   -1.3556    4.5263   -3.4877 H   0  0  0  0  0  0  0  0  0  0  0  0
   -0.0456    3.8394   -1.5191 H   0  0  0  0  0  0  0  0  0  0  0  0
   -0.1961    3.0820    2.9326 H   0  0  0  0  0  0  0  0  0  0  0  0
   -0.0752    3.8129    1.3112 H   0  0  0  0  0  0  0  0  0  0  0  0
   -1.9586    4.7564    2.7288 H   0  0  0  0  0  0  0  0  0  0  0  0
   -2.4959    4.0631    1.1788 H   0  0  0  0  0  0  0  0  0  0  0  0
   -3.8594    1.0931    2.7388 H   0  0  0  0  0  0  0  0  0  0  0  0
   -3.6053    1.9248    1.1847 H   0  0  0  0  0  0  0  0  0  0  0  0
   -2.0126    0.0927    1.3180 H   0  0  0  0  0  0  0  0  0  0  0  0
   -1.4768    0.6185    2.9348 H   0  0  0  0  0  0  0  0  0  0  0  0
  1  2  2  0
  2  3  2  0
  2  4  1  0
  2 14  1  1
  4 13  2  0
  4  5  1  0
  5  6  2  0
  5 20  1  0
  6  7  1  0
  6 21  1  0
  7  8  1  0
  7 12  2  0
  8  9  1  1
  8 10  1  0
  8 11  1  0
 12 13  1  0
 12 22  1  0
 13 23  1  0
 14 19  1  0
 14 15  1  0
 15 16  1  0
 15 24  1  1
 15 25  1  0
 16 17  1  0
 16 26  1  1
 16 27  1  0
 17 18  1  0
 18 19  1  0
 18 28  1  1
 18 29  1  0
 19 30  1  6
 19 31  1  0
M  END
$$$$
