ZINC000027462455
     RDKit          3D

 54 54  0  0  1  0  0  0  0  0999 V2000
   -0.0187    1.5258    0.0104 C   0  0  1  0  0  0  0  0  0  0  0  0
    0.0021   -0.0041    0.0020 C   0  0  1  0  0  0  0  0  0  0  0  0
    0.7182   -0.4975   -1.2568 C   0  0  1  0  0  0  0  0  0  0  0  0
    0.7390   -2.0273   -1.2652 C   0  0  2  0  0  0  0  0  0  0  0  0
    1.1870   -2.3897   -0.3400 H   0  0  0  0  0  0  0  0  0  0  0  0
    1.5619   -2.5197   -2.4574 C   0  0  1  0  0  0  0  0  0  0  0  0
   -0.6313   -2.5337   -1.3752 N   0  0  0  0  0  0  0  0  0  0  0  0
   -0.9349   -3.7625   -0.9121 C   0  0  0  0  0  0  0  0  0  0  0  0
   -0.0737   -4.4490   -0.4043 O   0  0  0  0  0  0  0  0  0  0  0  0
   -2.3445   -4.2833   -1.0253 C   0  0  1  0  0  0  0  0  0  0  0  0
   -2.4177   -5.6903   -0.4288 C   0  0  1  0  0  0  0  0  0  0  0  0
   -3.8273   -6.2112   -0.5419 C   0  0  0  0  0  0  0  0  0  0  0  0
   -4.7342   -5.9776    0.4748 C   0  0  0  0  0  0  0  0  0  0  0  0
   -6.0272   -6.4554    0.3710 C   0  0  0  0  0  0  0  0  0  0  0  0
   -6.4134   -7.1664   -0.7498 C   0  0  0  0  0  0  0  0  0  0  0  0
   -8.0613   -7.7759   -0.8818 S   0  0  1  0  0  0  0  0  0  0  0  0
   -8.0129   -8.8709   -1.7862 O   0  0  0  0  0  0  0  0  0  0  0  0
   -8.5562   -7.8856    0.4457 O   0  0  0  0  0  0  0  0  0  0  0  0
   -8.9617   -6.5987   -1.6207 N   0  0  0  0  0  0  0  0  0  0  0  0
   -9.0841   -6.5781   -3.0804 C   0  0  1  0  0  0  0  0  0  0  0  0
  -10.3645   -7.3058   -3.4951 C   0  0  1  0  0  0  0  0  0  0  0  0
   -9.6357   -5.5778   -0.8146 C   0  0  1  0  0  0  0  0  0  0  0  0
   -8.7509   -4.3329   -0.7246 C   0  0  1  0  0  0  0  0  0  0  0  0
   -5.5069   -7.3989   -1.7671 C   0  0  0  0  0  0  0  0  0  0  0  0
   -4.2150   -6.9178   -1.6650 C   0  0  0  0  0  0  0  0  0  0  0  0
    1.0039    1.9031    0.0027 H   0  0  0  0  0  0  0  0  0  0  0  0
   -0.5459    1.8868   -0.8726 H   0  0  0  0  0  0  0  0  0  0  0  0
   -0.5289    1.8773    0.9072 H   0  0  0  0  0  0  0  0  0  0  0  0
    0.5293   -0.3651    0.8851 H   0  0  0  0  0  0  0  0  0  0  0  0
   -1.0205   -0.3814    0.0098 H   0  0  0  0  0  0  0  0  0  0  0  0
    0.1910   -0.1364   -2.1398 H   0  0  0  0  0  0  0  0  0  0  0  0
    1.7408   -0.1202   -1.2645 H   0  0  0  0  0  0  0  0  0  0  0  0
    1.1138   -2.1573   -3.3826 H   0  0  0  0  0  0  0  0  0  0  0  0
    2.5814   -2.1429   -2.3755 H   0  0  0  0  0  0  0  0  0  0  0  0
    1.5766   -3.6095   -2.4634 H   0  0  0  0  0  0  0  0  0  0  0  0
   -1.3201   -1.9846   -1.7814 H   0  0  0  0  0  0  0  0  0  0  0  0
   -3.0206   -3.6229   -0.4824 H   0  0  0  0  0  0  0  0  0  0  0  0
   -2.6358   -4.3182   -2.0751 H   0  0  0  0  0  0  0  0  0  0  0  0
   -1.7416   -6.3508   -0.9717 H   0  0  0  0  0  0  0  0  0  0  0  0
   -2.1264   -5.6555    0.6210 H   0  0  0  0  0  0  0  0  0  0  0  0
   -4.4325   -5.4221    1.3505 H   0  0  0  0  0  0  0  0  0  0  0  0
   -6.7355   -6.2735    1.1657 H   0  0  0  0  0  0  0  0  0  0  0  0
   -9.1245   -5.5455   -3.4271 H   0  0  0  0  0  0  0  0  0  0  0  0
   -8.2227   -7.0771   -3.5244 H   0  0  0  0  0  0  0  0  0  0  0  0
  -10.3242   -8.3384   -3.1484 H   0  0  0  0  0  0  0  0  0  0  0  0
  -11.2260   -6.8069   -3.0511 H   0  0  0  0  0  0  0  0  0  0  0  0
  -10.4557   -7.2905   -4.5812 H   0  0  0  0  0  0  0  0  0  0  0  0
  -10.5855   -5.3157   -1.2806 H   0  0  0  0  0  0  0  0  0  0  0  0
   -9.8176   -5.9674    0.1870 H   0  0  0  0  0  0  0  0  0  0  0  0
   -7.8010   -4.5950   -0.2587 H   0  0  0  0  0  0  0  0  0  0  0  0
   -8.5690   -3.9433   -1.7263 H   0  0  0  0  0  0  0  0  0  0  0  0
   -9.2524   -3.5733   -0.1249 H   0  0  0  0  0  0  0  0  0  0  0  0
   -5.8087   -7.9541   -2.6430 H   0  0  0  0  0  0  0  0  0  0  0  0
   -3.5067   -7.0994   -2.4599 H   0  0  0  0  0  0  0  0  0  0  0  0
  1  2  1  0
  1 26  1  6
  1 27  1  0
  1 28  1  0
  2  3  1  0
  2 29  1  1
  2 30  1  0
  3  4  1  0
  3 31  1  6
  3 32  1  0
  4  5  1  1
  4  6  1  0
  4  7  1  0
  6 33  1  6
  6 34  1  0
  6 35  1  0
  7  8  1  0
  7 36  1  0
  8  9  2  0
  8 10  1  0
 10 11  1  0
 10 37  1  1
 10 38  1  0
 11 12  1  0
 11 39  1  6
 11 40  1  0
 12 25  2  0
 12 13  1  0
 13 14  2  0
 13 41  1  0
 14 15  1  0
 14 42  1  0
 15 16  1  0
 15 24  2  0
 16 17  2  0
 16 18  2  0
 16 19  1  6
 19 20  1  0
 19 22  1  0
 20 21  1  0
 20 43  1  6
 20 44  1  0
 21 45  1  1
 21 46  1  0
 21 47  1  0
 22 23  1  0
 22 48  1  6
 22 49  1  0
 23 50  1  1
 23 51  1  0
 23 52  1  0
 24 25  1  0
 24 53  1  0
 25 54  1  0
M  END
$$$$
