ZINC000006205261
     RDKit          3D

 55 56  0  0  0  0  0  0  0  0999 V2000
   -0.0187    1.5258    0.0104 C   0  0  1  0  0  0  0  0  0  0  0  0
    0.0021   -0.0041    0.0020 C   0  0  1  0  0  0  0  0  0  0  0  0
    0.7106   -0.4894    1.1889 N   0  0  0  0  0  0  0  0  0  0  0  0
   -0.0062   -0.6460    2.4569 C   0  0  1  0  0  0  0  0  0  0  0  0
   -0.6935   -2.0126    2.4888 C   0  0  1  0  0  0  0  0  0  0  0  0
    2.3218   -0.8609    1.0971 S   0  0  1  0  0  0  0  0  0  0  0  0
    2.5823   -1.7795    2.1496 O   0  0  0  0  0  0  0  0  0  0  0  0
    2.5905   -1.1471   -0.2686 O   0  0  0  0  0  0  0  0  0  0  0  0
    3.2182    0.6060    1.4837 C   0  0  0  0  0  0  0  0  0  0  0  0
    3.5682    1.4863    0.4769 C   0  0  0  0  0  0  0  0  0  0  0  0
    4.2714    2.6370    0.7774 C   0  0  0  0  0  0  0  0  0  0  0  0
    4.6259    2.9088    2.0906 C   0  0  0  0  0  0  0  0  0  0  0  0
    5.3172    4.0402    2.3888 O   0  0  0  0  0  0  0  0  0  0  0  0
    5.6461    4.9054    1.3000 C   0  0  1  0  0  0  0  0  0  0  0  0
    6.4063    6.0988    1.8187 C   0  0  0  0  0  0  0  0  0  0  0  0
    6.6431    6.1985    3.0040 O   0  0  0  0  0  0  0  0  0  0  0  0
    6.8231    7.0552    0.9654 N   0  0  0  0  0  0  0  0  0  0  0  0
    7.5621    8.2153    1.4697 C   0  0  1  0  0  0  0  0  0  0  0  0
    9.0482    7.8671    1.5744 C   0  0  1  0  0  0  0  0  0  0  0  0
    9.8200    9.0786    2.1010 C   0  0  1  0  0  0  0  0  0  0  0  0
    9.6385   10.2558    1.1407 C   0  0  1  0  0  0  0  0  0  0  0  0
    8.1523   10.6040    1.0359 C   0  0  1  0  0  0  0  0  0  0  0  0
    7.3805    9.3924    0.5093 C   0  0  1  0  0  0  0  0  0  0  0  0
    4.2730    2.0239    3.0994 C   0  0  0  0  0  0  0  0  0  0  0  0
    4.6496    2.3108    4.5016 N   0  0  0  0  0  0  0  0  0  0  0  0
    4.3396    1.5337    5.3867 O   0  0  0  0  0  0  0  0  0  0  0  0
    5.2696    3.3242    4.7705 O   0  0  0  0  0  0  0  0  0  0  0  0
    3.5654    0.8775    2.7945 C   0  0  0  0  0  0  0  0  0  0  0  0
    1.0039    1.9031    0.0027 H   0  0  0  0  0  0  0  0  0  0  0  0
   -0.5459    1.8868   -0.8726 H   0  0  0  0  0  0  0  0  0  0  0  0
   -0.5289    1.8773    0.9072 H   0  0  0  0  0  0  0  0  0  0  0  0
   -1.0205   -0.3814    0.0098 H   0  0  0  0  0  0  0  0  0  0  0  0
    0.5123   -0.3556   -0.8948 H   0  0  0  0  0  0  0  0  0  0  0  0
    0.6997   -0.5749    3.2845 H   0  0  0  0  0  0  0  0  0  0  0  0
   -0.7557    0.1399    2.5501 H   0  0  0  0  0  0  0  0  0  0  0  0
   -1.3993   -2.0837    1.6613 H   0  0  0  0  0  0  0  0  0  0  0  0
    0.0560   -2.7985    2.3957 H   0  0  0  0  0  0  0  0  0  0  0  0
   -1.2268   -2.1291    3.4323 H   0  0  0  0  0  0  0  0  0  0  0  0
    3.2920    1.2742   -0.5454 H   0  0  0  0  0  0  0  0  0  0  0  0
    4.5453    3.3241   -0.0096 H   0  0  0  0  0  0  0  0  0  0  0  0
    6.2629    4.3662    0.5810 H   0  0  0  0  0  0  0  0  0  0  0  0
    4.7305    5.2414    0.8135 H   0  0  0  0  0  0  0  0  0  0  0  0
    6.6337    6.9754    0.0175 H   0  0  0  0  0  0  0  0  0  0  0  0
    7.1825    8.4879    2.4544 H   0  0  0  0  0  0  0  0  0  0  0  0
    9.1776    7.0285    2.2586 H   0  0  0  0  0  0  0  0  0  0  0  0
    9.4278    7.5944    0.5897 H   0  0  0  0  0  0  0  0  0  0  0  0
    9.4405    9.3513    3.0858 H   0  0  0  0  0  0  0  0  0  0  0  0
   10.8788    8.8306    2.1757 H   0  0  0  0  0  0  0  0  0  0  0  0
   10.1883   11.1189    1.5158 H   0  0  0  0  0  0  0  0  0  0  0  0
   10.0181    9.9831    0.1559 H   0  0  0  0  0  0  0  0  0  0  0  0
    7.7727   10.8766    2.0206 H   0  0  0  0  0  0  0  0  0  0  0  0
    8.0230   11.4426    0.3517 H   0  0  0  0  0  0  0  0  0  0  0  0
    7.7601    9.1198   -0.4754 H   0  0  0  0  0  0  0  0  0  0  0  0
    6.3218    9.6404    0.4347 H   0  0  0  0  0  0  0  0  0  0  0  0
    3.2905    0.1884    3.5793 H   0  0  0  0  0  0  0  0  0  0  0  0
  1  2  1  0
  1 29  1  6
  1 30  1  0
  1 31  1  0
  2  3  1  0
  2 32  1  1
  2 33  1  0
  3  4  1  0
  6  3  1  6
  4  5  1  0
  4 34  1  1
  4 35  1  0
  5 36  1  6
  5 37  1  0
  5 38  1  0
  6  7  2  0
  6  8  2  0
  6  9  1  0
  9 28  2  0
  9 10  1  0
 10 11  2  0
 10 39  1  0
 11 12  1  0
 11 40  1  0
 12 13  1  0
 12 24  2  0
 13 14  1  0
 14 15  1  0
 14 41  1  6
 14 42  1  0
 15 16  2  0
 15 17  1  0
 17 18  1  0
 17 43  1  0
 18 23  1  0
 18 19  1  0
 18 44  1  1
 19 20  1  0
 19 45  1  1
 19 46  1  0
 20 21  1  0
 20 47  1  1
 20 48  1  0
 21 22  1  0
 21 49  1  1
 21 50  1  0
 22 23  1  0
 22 51  1  1
 22 52  1  0
 23 53  1  6
 23 54  1  0
 24 25  1  0
 24 28  1  0
 25 26  2  0
 25 27  2  0
 28 55  1  0
M  END
$$$$
