ZINC000408607381
     RDKit          3D

 59 61  0  0  1  0  0  0  0  0999 V2000
   -0.0187    1.5258    0.0104 C   0  0  1  0  0  0  0  0  0  0  0  0
    0.0021   -0.0041    0.0020 C   0  0  2  0  0  0  0  0  0  0  0  0
   -1.0205   -0.3814    0.0098 H   0  0  0  0  0  0  0  0  0  0  0  0
    0.7421   -0.5109    1.2415 C   0  0  1  0  0  0  0  0  0  0  0  0
    0.6554   -2.0374    1.2986 C   0  0  1  0  0  0  0  0  0  0  0  0
    1.3843   -2.5366    2.5195 C   0  0  0  0  0  0  0  0  0  0  0  0
    2.7305   -2.8414    2.4443 C   0  0  0  0  0  0  0  0  0  0  0  0
    3.3991   -3.2993    3.5642 C   0  0  0  0  0  0  0  0  0  0  0  0
    2.7216   -3.4520    4.7594 C   0  0  0  0  0  0  0  0  0  0  0  0
    1.3755   -3.1464    4.8348 C   0  0  0  0  0  0  0  0  0  0  0  0
    0.7079   -2.6844    3.7160 C   0  0  0  0  0  0  0  0  0  0  0  0
    0.6878   -0.4765   -1.2033 N   0  0  0  0  0  0  0  0  0  0  0  0
    0.0062   -0.6081   -2.3585 C   0  0  0  0  0  0  0  0  0  0  0  0
   -1.1748   -0.3355   -2.4003 O   0  0  0  0  0  0  0  0  0  0  0  0
    0.7116   -1.0941   -3.5984 C   0  0  1  0  0  0  0  0  0  0  0  0
   -0.2397   -1.1502   -4.7112 N   0  0  0  0  0  0  0  0  0  0  0  0
   -0.5094    0.0508   -5.5055 C   0  0  1  0  0  0  0  0  0  0  0  0
    0.5294    0.1799   -6.5895 C   0  0  0  0  0  0  0  0  0  0  0  0
    1.6982    0.8771   -6.3473 C   0  0  0  0  0  0  0  0  0  0  0  0
    2.6511    0.9956   -7.3417 C   0  0  0  0  0  0  0  0  0  0  0  0
    2.4354    0.4164   -8.5782 C   0  0  0  0  0  0  0  0  0  0  0  0
    1.2670   -0.2815   -8.8201 C   0  0  0  0  0  0  0  0  0  0  0  0
    0.3160   -0.4036   -7.8244 C   0  0  0  0  0  0  0  0  0  0  0  0
   -1.0101   -2.5712   -5.0711 S   0  0  1  0  0  0  0  0  0  0  0  0
   -1.3936   -2.4850   -6.4367 O   0  0  0  0  0  0  0  0  0  0  0  0
   -0.1908   -3.6129   -4.5582 O   0  0  0  0  0  0  0  0  0  0  0  0
   -2.5032   -2.6064   -4.1362 C   0  0  0  0  0  0  0  0  0  0  0  0
   -2.5112   -3.1554   -2.8675 C   0  0  0  0  0  0  0  0  0  0  0  0
   -3.6821   -3.1833   -2.1337 C   0  0  0  0  0  0  0  0  0  0  0  0
   -4.8463   -2.6616   -2.6691 C   0  0  0  0  0  0  0  0  0  0  0  0
   -6.3173   -2.6958   -1.7478 Cl  0  0  0  0  0  0  0  0  0  0  0  0
   -4.8377   -2.1123   -3.9389 C   0  0  0  0  0  0  0  0  0  0  0  0
   -3.6648   -2.0799   -4.6695 C   0  0  0  0  0  0  0  0  0  0  0  0
    1.0039    1.9031    0.0027 H   0  0  0  0  0  0  0  0  0  0  0  0
   -0.5459    1.8868   -0.8726 H   0  0  0  0  0  0  0  0  0  0  0  0
   -0.5289    1.8773    0.9072 H   0  0  0  0  0  0  0  0  0  0  0  0
    1.7879   -0.2080    1.1895 H   0  0  0  0  0  0  0  0  0  0  0  0
    0.2852   -0.0874    2.1360 H   0  0  0  0  0  0  0  0  0  0  0  0
   -0.3904   -2.3402    1.3506 H   0  0  0  0  0  0  0  0  0  0  0  0
    1.1123   -2.4609    0.4042 H   0  0  0  0  0  0  0  0  0  0  0  0
    3.2599   -2.7220    1.5106 H   0  0  0  0  0  0  0  0  0  0  0  0
    4.4507   -3.5381    3.5053 H   0  0  0  0  0  0  0  0  0  0  0  0
    3.2437   -3.8105    5.6342 H   0  0  0  0  0  0  0  0  0  0  0  0
    0.8461   -3.2660    5.7685 H   0  0  0  0  0  0  0  0  0  0  0  0
   -0.3437   -2.4456    3.7749 H   0  0  0  0  0  0  0  0  0  0  0  0
    1.6324   -0.6946   -1.1699 H   0  0  0  0  0  0  0  0  0  0  0  0
    1.5220   -0.4092   -3.8474 H   0  0  0  0  0  0  0  0  0  0  0  0
    1.1190   -2.0889   -3.4183 H   0  0  0  0  0  0  0  0  0  0  0  0
   -1.4983   -0.0269   -5.9573 H   0  0  0  0  0  0  0  0  0  0  0  0
   -0.4726    0.9288   -4.8605 H   0  0  0  0  0  0  0  0  0  0  0  0
    1.8667    1.3296   -5.3812 H   0  0  0  0  0  0  0  0  0  0  0  0
    3.5640    1.5409   -7.1526 H   0  0  0  0  0  0  0  0  0  0  0  0
    3.1796    0.5095   -9.3553 H   0  0  0  0  0  0  0  0  0  0  0  0
    1.0983   -0.7337   -9.7863 H   0  0  0  0  0  0  0  0  0  0  0  0
   -0.5969   -0.9489   -8.0134 H   0  0  0  0  0  0  0  0  0  0  0  0
   -1.6025   -3.5629   -2.4498 H   0  0  0  0  0  0  0  0  0  0  0  0
   -3.6884   -3.6125   -1.1427 H   0  0  0  0  0  0  0  0  0  0  0  0
   -5.7462   -1.7052   -4.3575 H   0  0  0  0  0  0  0  0  0  0  0  0
   -3.6578   -1.6508   -5.6606 H   0  0  0  0  0  0  0  0  0  0  0  0
  1  2  1  0
  1 34  1  6
  1 35  1  0
  1 36  1  0
  2  3  1  1
  2  4  1  0
  2 12  1  0
  4  5  1  0
  4 37  1  6
  4 38  1  0
  5  6  1  0
  5 39  1  1
  5 40  1  0
  6 11  2  0
  6  7  1  0
  7  8  2  0
  7 41  1  0
  8  9  1  0
  8 42  1  0
  9 10  2  0
  9 43  1  0
 10 11  1  0
 10 44  1  0
 11 45  1  0
 12 13  1  0
 12 46  1  0
 13 14  2  0
 13 15  1  0
 15 16  1  0
 15 47  1  6
 15 48  1  0
 16 17  1  0
 24 16  1  1
 17 18  1  0
 17 49  1  6
 17 50  1  0
 18 23  2  0
 18 19  1  0
 19 20  2  0
 19 51  1  0
 20 21  1  0
 20 52  1  0
 21 22  2  0
 21 53  1  0
 22 23  1  0
 22 54  1  0
 23 55  1  0
 24 25  2  0
 24 26  2  0
 24 27  1  0
 27 33  2  0
 27 28  1  0
 28 29  2  0
 28 56  1  0
 29 30  1  0
 29 57  1  0
 30 31  1  0
 30 32  2  0
 32 33  1  0
 32 58  1  0
 33 59  1  0
M  END
$$$$
