ZINC000039985286
     RDKit          3D

 43 43  0  0  0  0  0  0  0  0999 V2000
   -0.0187    1.5258    0.0104 C   0  0  1  0  0  0  0  0  0  0  0  0
    0.0021   -0.0041    0.0020 C   0  0  1  0  0  0  0  0  0  0  0  0
   -1.3723   -0.5112    0.0124 N   0  0  0  0  0  0  0  0  0  0  0  0
   -2.1099   -0.6542   -1.2453 C   0  0  1  0  0  0  0  0  0  0  0  0
   -1.7778   -1.9829   -1.8740 C   0  0  0  0  0  0  0  0  0  0  0  0
   -1.0015   -2.7362   -1.3256 O   0  0  0  0  0  0  0  0  0  0  0  0
   -2.3435   -2.3340   -3.0459 N   0  0  0  0  0  0  0  0  0  0  0  0
   -2.0207   -3.6257   -3.6571 C   0  0  1  0  0  0  0  0  0  0  0  0
   -2.7910   -3.7751   -4.9706 C   0  0  1  0  0  0  0  0  0  0  0  0
   -2.4539   -5.1240   -5.6090 C   0  0  1  0  0  0  0  0  0  0  0  0
   -3.1733   -5.2635   -6.8358 O   0  0  0  0  0  0  0  0  0  0  0  0
   -2.9284   -6.4960   -7.5162 C   0  0  1  0  0  0  0  0  0  0  0  0
   -2.0922   -0.9227    1.4458 S   0  0  1  0  0  0  0  0  0  0  0  0
   -3.1196   -1.8512    1.1269 O   0  0  0  0  0  0  0  0  0  0  0  0
   -1.0393   -1.2108    2.3555 O   0  0  0  0  0  0  0  0  0  0  0  0
   -2.8978    0.5199    2.0580 C   0  0  0  0  0  0  0  0  0  0  0  0
   -2.2156    1.3954    2.8820 C   0  0  0  0  0  0  0  0  0  0  0  0
   -2.8476    2.5271    3.3622 C   0  0  0  0  0  0  0  0  0  0  0  0
   -4.1616    2.7836    3.0181 C   0  0  0  0  0  0  0  0  0  0  0  0
   -4.8435    1.9086    2.1933 C   0  0  0  0  0  0  0  0  0  0  0  0
   -4.2102    0.7790    1.7096 C   0  0  0  0  0  0  0  0  0  0  0  0
    1.0039    1.9031    0.0027 H   0  0  0  0  0  0  0  0  0  0  0  0
   -0.5459    1.8868   -0.8726 H   0  0  0  0  0  0  0  0  0  0  0  0
   -0.5289    1.8773    0.9072 H   0  0  0  0  0  0  0  0  0  0  0  0
    0.5123   -0.3556   -0.8948 H   0  0  0  0  0  0  0  0  0  0  0  0
    0.5293   -0.3651    0.8851 H   0  0  0  0  0  0  0  0  0  0  0  0
   -3.1804   -0.6037   -1.0465 H   0  0  0  0  0  0  0  0  0  0  0  0
   -1.8283    0.1500   -1.9251 H   0  0  0  0  0  0  0  0  0  0  0  0
   -2.9644   -1.7315   -3.4845 H   0  0  0  0  0  0  0  0  0  0  0  0
   -0.9502   -3.6762   -3.8559 H   0  0  0  0  0  0  0  0  0  0  0  0
   -2.3023   -4.4299   -2.9773 H   0  0  0  0  0  0  0  0  0  0  0  0
   -3.8615   -3.7246   -4.7718 H   0  0  0  0  0  0  0  0  0  0  0  0
   -2.5094   -2.9709   -5.6504 H   0  0  0  0  0  0  0  0  0  0  0  0
   -1.3833   -5.1745   -5.8078 H   0  0  0  0  0  0  0  0  0  0  0  0
   -2.7355   -5.9282   -4.9292 H   0  0  0  0  0  0  0  0  0  0  0  0
   -3.5109   -6.5246   -8.4371 H   0  0  0  0  0  0  0  0  0  0  0  0
   -1.8677   -6.5750   -7.7546 H   0  0  0  0  0  0  0  0  0  0  0  0
   -3.2199   -7.3287   -6.8760 H   0  0  0  0  0  0  0  0  0  0  0  0
   -1.1890    1.1950    3.1509 H   0  0  0  0  0  0  0  0  0  0  0  0
   -2.3149    3.2108    4.0066 H   0  0  0  0  0  0  0  0  0  0  0  0
   -4.6556    3.6674    3.3939 H   0  0  0  0  0  0  0  0  0  0  0  0
   -5.8703    2.1088    1.9247 H   0  0  0  0  0  0  0  0  0  0  0  0
   -4.7429    0.0954    1.0653 H   0  0  0  0  0  0  0  0  0  0  0  0
  1  2  1  0
  1 22  1  6
  1 23  1  0
  1 24  1  0
  2  3  1  0
  2 25  1  6
  2 26  1  0
  3  4  1  0
 13  3  1  6
  4  5  1  0
  4 27  1  1
  4 28  1  0
  5  6  2  0
  5  7  1  0
  7  8  1  0
  7 29  1  0
  8  9  1  0
  8 30  1  6
  8 31  1  0
  9 10  1  0
  9 32  1  1
  9 33  1  0
 10 11  1  0
 10 34  1  6
 10 35  1  0
 11 12  1  0
 12 36  1  6
 12 37  1  0
 12 38  1  0
 13 14  2  0
 13 15  2  0
 13 16  1  0
 16 21  2  0
 16 17  1  0
 17 18  2  0
 17 39  1  0
 18 19  1  0
 18 40  1  0
 19 20  2  0
 19 41  1  0
 20 21  1  0
 20 42  1  0
 21 43  1  0
M  END
$$$$
