ZINC000013656358
     RDKit          3D

 42 44  0  0  1  0  0  0  0  0999 V2000
   -0.2798   -0.0489   -0.8958 C   0  0  1  0  0  0  0  0  0  0  0  0
   -0.4585   -1.4351   -0.5986 O   0  0  0  0  0  0  0  0  0  0  0  0
    0.2193   -1.9293    0.4706 C   0  0  0  0  0  0  0  0  0  0  0  0
    1.0352   -1.0957    1.2218 C   0  0  0  0  0  0  0  0  0  0  0  0
    1.7228   -1.6003    2.3085 C   0  0  0  0  0  0  0  0  0  0  0  0
    1.5988   -2.9350    2.6475 C   0  0  0  0  0  0  0  0  0  0  0  0
    2.3504   -3.4829    3.8332 C   0  0  1  0  0  0  0  0  0  0  0  0
    1.5254   -3.3531    5.0369 N   0  0  0  0  0  0  0  0  0  0  0  0
    1.5305   -2.2828    5.8397 C   0  0  0  0  0  0  0  0  0  0  0  0
    2.2239   -1.3021    5.6538 O   0  0  0  0  0  0  0  0  0  0  0  0
    0.6824   -2.4135    6.8757 N   0  0  0  0  0  0  0  0  0  0  0  0
    0.0431   -3.7330    6.7330 C   0  0  1  0  0  0  0  0  0  0  0  0
    0.3526   -4.5830    7.8854 N   0  0  0  0  0  0  0  0  0  0  0  0
    0.0161   -5.8880    7.8699 C   0  0  0  0  0  0  0  0  0  0  0  0
   -0.4670   -6.3778    6.8711 O   0  0  0  0  0  0  0  0  0  0  0  0
    0.2402   -6.7385    9.0936 C   0  0  1  0  0  0  0  0  0  0  0  0
   -0.9966   -7.2358    9.8445 C   0  0  1  0  0  0  0  0  0  0  0  0
   -0.1625   -8.2124    9.0129 C   0  0  1  0  0  0  0  0  0  0  0  0
   -1.4705   -3.5828    6.5680 C   0  0  1  0  0  0  0  0  0  0  0  0
   -1.7398   -2.7135    5.5055 F   0  0  0  0  0  0  0  0  0  0  0  0
   -2.0370   -4.8340    6.3019 F   0  0  0  0  0  0  0  0  0  0  0  0
   -2.0187   -3.0636    7.7458 F   0  0  0  0  0  0  0  0  0  0  0  0
    0.6634   -4.2945    5.4690 C   0  0  0  0  0  0  0  0  0  0  0  0
    0.4356   -5.3694    4.9566 O   0  0  0  0  0  0  0  0  0  0  0  0
    0.7860   -3.7677    1.9008 C   0  0  0  0  0  0  0  0  0  0  0  0
    0.0922   -3.2668    0.8163 C   0  0  0  0  0  0  0  0  0  0  0  0
    0.7729    0.1460   -1.1009 H   0  0  0  0  0  0  0  0  0  0  0  0
   -0.8751    0.2150   -1.7700 H   0  0  0  0  0  0  0  0  0  0  0  0
   -0.6008    0.5498   -0.0434 H   0  0  0  0  0  0  0  0  0  0  0  0
    1.1329   -0.0532    0.9570 H   0  0  0  0  0  0  0  0  0  0  0  0
    2.3580   -0.9517    2.8936 H   0  0  0  0  0  0  0  0  0  0  0  0
    2.5814   -4.5344    3.6627 H   0  0  0  0  0  0  0  0  0  0  0  0
    3.2770   -2.9243    3.9658 H   0  0  0  0  0  0  0  0  0  0  0  0
    0.5233   -1.7655    7.5798 H   0  0  0  0  0  0  0  0  0  0  0  0
    0.7997   -4.2066    8.6596 H   0  0  0  0  0  0  0  0  0  0  0  0
    1.1216   -6.4892    9.6844 H   0  0  0  0  0  0  0  0  0  0  0  0
   -0.9292   -7.3136   10.9296 H   0  0  0  0  0  0  0  0  0  0  0  0
   -1.9724   -6.9477    9.4534 H   0  0  0  0  0  0  0  0  0  0  0  0
   -0.5895   -8.5668    8.0748 H   0  0  0  0  0  0  0  0  0  0  0  0
    0.4537   -8.9326    9.5510 H   0  0  0  0  0  0  0  0  0  0  0  0
    0.6905   -4.8098    2.1678 H   0  0  0  0  0  0  0  0  0  0  0  0
   -0.5426   -3.9177    0.2333 H   0  0  0  0  0  0  0  0  0  0  0  0
  1  2  1  0
  1 27  1  6
  1 28  1  0
  1 29  1  0
  2  3  1  0
  3 26  2  0
  3  4  1  0
  4  5  2  0
  4 30  1  0
  5  6  1  0
  5 31  1  0
  6  7  1  0
  6 25  2  0
  7  8  1  0
  7 32  1  6
  7 33  1  0
  8 23  1  0
  8  9  1  0
  9 10  2  0
  9 11  1  0
 11 12  1  0
 11 34  1  0
 12 13  1  1
 12 19  1  0
 12 23  1  0
 13 14  1  0
 13 35  1  0
 14 15  2  0
 14 16  1  0
 16 18  1  0
 16 17  1  0
 16 36  1  1
 17 18  1  0
 17 37  1  1
 17 38  1  0
 18 39  1  6
 18 40  1  0
 19 20  1  6
 19 21  1  0
 19 22  1  0
 23 24  2  0
 25 26  1  0
 25 41  1  0
 26 42  1  0
M  END
$$$$
