ZINC000095444641
     RDKit          3D

 49 51  0  0  0  0  0  0  0  0999 V2000
   -0.0173    1.4248    0.0099 C   0  0  1  0  0  0  0  0  0  0  0  0
    0.0021   -0.0041    0.0020 O   0  0  0  0  0  0  0  0  0  0  0  0
    0.6058   -0.6071   -1.0557 C   0  0  0  0  0  0  0  0  0  0  0  0
    1.1730    0.1607   -2.0624 C   0  0  0  0  0  0  0  0  0  0  0  0
    1.7865   -0.4547   -3.1363 C   0  0  0  0  0  0  0  0  0  0  0  0
    1.8352   -1.8346   -3.2086 C   0  0  0  0  0  0  0  0  0  0  0  0
    2.6179   -2.6165   -4.5800 S   0  0  1  0  0  0  0  0  0  0  0  0
    2.0536   -3.9171   -4.6761 O   0  0  0  0  0  0  0  0  0  0  0  0
    2.5918   -1.6772   -5.6459 O   0  0  0  0  0  0  0  0  0  0  0  0
    4.2113   -2.8264   -4.1806 N   0  0  0  0  0  0  0  0  0  0  0  0
    5.4488   -2.0433   -4.3154 C   0  0  1  0  0  0  0  0  0  0  0  0
    5.9863   -2.7818   -3.0818 C   0  0  1  0  0  0  0  0  0  0  0  0
    5.6346   -2.1545   -1.8055 N   0  0  0  0  0  0  0  0  0  0  0  0
    6.4059   -2.3583   -0.7192 C   0  0  0  0  0  0  0  0  0  0  0  0
    7.3913   -3.0609   -0.7983 O   0  0  0  0  0  0  0  0  0  0  0  0
    6.0441   -1.7130    0.5937 C   0  0  1  0  0  0  0  0  0  0  0  0
    7.0069   -2.0772    1.5848 O   0  0  0  0  0  0  0  0  0  0  0  0
    6.8257   -1.5754    2.8347 C   0  0  0  0  0  0  0  0  0  0  0  0
    5.7404   -0.7540    3.1031 C   0  0  0  0  0  0  0  0  0  0  0  0
    5.5582   -0.2456    4.3746 C   0  0  0  0  0  0  0  0  0  0  0  0
    6.4567   -0.5543    5.3792 C   0  0  0  0  0  0  0  0  0  0  0  0
    6.2558    0.0021    6.7652 C   0  0  1  0  0  0  0  0  0  0  0  0
    5.4727   -0.8828    7.5140 F   0  0  0  0  0  0  0  0  0  0  0  0
    7.4984    0.1656    7.3867 F   0  0  0  0  0  0  0  0  0  0  0  0
    5.6098    1.2402    6.6816 F   0  0  0  0  0  0  0  0  0  0  0  0
    7.5389   -1.3731    5.1144 C   0  0  0  0  0  0  0  0  0  0  0  0
    7.7226   -1.8883    3.8458 C   0  0  0  0  0  0  0  0  0  0  0  0
    5.0104   -3.8752   -3.5293 C   0  0  1  0  0  0  0  0  0  0  0  0
    1.2710   -2.6021   -2.2063 C   0  0  0  0  0  0  0  0  0  0  0  0
    0.6609   -1.9915   -1.1277 C   0  0  0  0  0  0  0  0  0  0  0  0
    1.0053    1.8021    0.0021 H   0  0  0  0  0  0  0  0  0  0  0  0
   -0.5445    1.7859   -0.8732 H   0  0  0  0  0  0  0  0  0  0  0  0
   -0.5275    1.7763    0.9067 H   0  0  0  0  0  0  0  0  0  0  0  0
    1.1347    1.2385   -2.0068 H   0  0  0  0  0  0  0  0  0  0  0  0
    2.2283    0.1425   -3.9203 H   0  0  0  0  0  0  0  0  0  0  0  0
    6.0035   -2.2617   -5.2279 H   0  0  0  0  0  0  0  0  0  0  0  0
    5.3061   -0.9749   -4.1537 H   0  0  0  0  0  0  0  0  0  0  0  0
    7.0383   -3.0592   -3.1501 H   0  0  0  0  0  0  0  0  0  0  0  0
    4.8465   -1.5925   -1.7422 H   0  0  0  0  0  0  0  0  0  0  0  0
    6.0360   -0.6294    0.4759 H   0  0  0  0  0  0  0  0  0  0  0  0
    5.0560   -2.0519    0.9050 H   0  0  0  0  0  0  0  0  0  0  0  0
    5.0387   -0.5120    2.3186 H   0  0  0  0  0  0  0  0  0  0  0  0
    4.7134    0.3939    4.5841 H   0  0  0  0  0  0  0  0  0  0  0  0
    8.2391   -1.6130    5.9008 H   0  0  0  0  0  0  0  0  0  0  0  0
    8.5681   -2.5278    3.6395 H   0  0  0  0  0  0  0  0  0  0  0  0
    4.4968   -4.3639   -2.7014 H   0  0  0  0  0  0  0  0  0  0  0  0
    5.4461   -4.5843   -4.2332 H   0  0  0  0  0  0  0  0  0  0  0  0
    1.3106   -3.6797   -2.2649 H   0  0  0  0  0  0  0  0  0  0  0  0
    0.2204   -2.5913   -0.3451 H   0  0  0  0  0  0  0  0  0  0  0  0
  1  2  1  0
  1 31  1  6
  1 32  1  0
  1 33  1  0
  2  3  1  0
  3 30  2  0
  3  4  1  0
  4  5  2  0
  4 34  1  0
  5  6  1  0
  5 35  1  0
  6  7  1  0
  6 29  2  0
  7  8  2  0
  7  9  2  0
  7 10  1  1
 10 28  1  0
 10 11  1  0
 11 12  1  0
 11 36  1  6
 11 37  1  0
 12 13  1  0
 12 28  1  0
 12 38  1  6
 13 14  1  0
 13 39  1  0
 14 15  2  0
 14 16  1  0
 16 17  1  0
 16 40  1  6
 16 41  1  0
 17 18  1  0
 18 27  2  0
 18 19  1  0
 19 20  2  0
 19 42  1  0
 20 21  1  0
 20 43  1  0
 21 22  1  0
 21 26  2  0
 22 23  1  1
 22 24  1  0
 22 25  1  0
 26 27  1  0
 26 44  1  0
 27 45  1  0
 28 46  1  1
 28 47  1  0
 29 30  1  0
 29 48  1  0
 30 49  1  0
M  END
$$$$
