ZINC000017847781
     RDKit          3D

 45 47  0  0  0  0  0  0  0  0999 V2000
    1.0369    1.7881   -0.1934 O   0  0  0  0  0  0  0  0  0  0  0  0
   -0.0144    1.2117    0.0087 C   0  0  0  0  0  0  0  0  0  0  0  0
   -0.0560   -0.2630    0.0246 C   0  0  0  0  0  0  0  0  0  0  0  0
   -0.5761   -0.9391    1.1306 C   0  0  0  0  0  0  0  0  0  0  0  0
   -0.6121   -2.3169    1.1393 C   0  0  0  0  0  0  0  0  0  0  0  0
   -0.1346   -3.0353    0.0556 C   0  0  0  0  0  0  0  0  0  0  0  0
    0.3827   -2.3794   -1.0441 C   0  0  0  0  0  0  0  0  0  0  0  0
    0.4209   -0.9936   -1.0725 C   0  0  0  0  0  0  0  0  0  0  0  0
    0.9283   -0.3480   -2.1523 O   0  0  0  0  0  0  0  0  0  0  0  0
   -1.1407    1.9200    0.2237 N   0  0  0  0  0  0  0  0  0  0  0  0
   -1.1334    3.3860    0.1213 C   0  0  1  0  0  0  0  0  0  0  0  0
   -2.2091    3.8124   -0.8853 C   0  0  1  0  0  0  0  0  0  0  0  0
   -3.4668    3.1325   -0.5448 N   0  0  0  0  0  0  0  0  0  0  0  0
   -4.8509    4.0027   -0.2817 S   0  0  1  0  0  0  0  0  0  0  0  0
   -5.6876    3.1901    0.5301 O   0  0  0  0  0  0  0  0  0  0  0  0
   -4.4380    5.3100    0.0920 O   0  0  0  0  0  0  0  0  0  0  0  0
   -5.6686    4.1639   -1.8341 C   0  0  0  0  0  0  0  0  0  0  0  0
   -5.3867    5.2395   -2.6554 C   0  0  0  0  0  0  0  0  0  0  0  0
   -6.0283    5.3660   -3.8733 C   0  0  0  0  0  0  0  0  0  0  0  0
   -6.9513    4.4166   -4.2701 C   0  0  0  0  0  0  0  0  0  0  0  0
   -7.6511    4.5547   -5.5977 C   0  0  1  0  0  0  0  0  0  0  0  0
   -6.9061    3.9046   -6.5874 F   0  0  0  0  0  0  0  0  0  0  0  0
   -8.9229    3.9776   -5.5167 F   0  0  0  0  0  0  0  0  0  0  0  0
   -7.7738    5.9102   -5.9213 F   0  0  0  0  0  0  0  0  0  0  0  0
   -7.2322    3.3402   -3.4495 C   0  0  0  0  0  0  0  0  0  0  0  0
   -6.5879    3.2117   -2.2332 C   0  0  0  0  0  0  0  0  0  0  0  0
   -3.4741    1.6664   -0.4424 C   0  0  1  0  0  0  0  0  0  0  0  0
   -2.3996    1.2397    0.5587 C   0  0  1  0  0  0  0  0  0  0  0  0
   -0.9493   -0.3830    1.9779 H   0  0  0  0  0  0  0  0  0  0  0  0
   -1.0142   -2.8387    1.9951 H   0  0  0  0  0  0  0  0  0  0  0  0
   -0.1667   -4.1147    0.0709 H   0  0  0  0  0  0  0  0  0  0  0  0
    0.7538   -2.9466   -1.8850 H   0  0  0  0  0  0  0  0  0  0  0  0
    0.2727   -0.1462   -2.8339 H   0  0  0  0  0  0  0  0  0  0  0  0
   -1.3513    3.8219    1.0963 H   0  0  0  0  0  0  0  0  0  0  0  0
   -0.1559    3.7238   -0.2229 H   0  0  0  0  0  0  0  0  0  0  0  0
   -2.3512    4.8918   -0.8336 H   0  0  0  0  0  0  0  0  0  0  0  0
   -1.9011    3.5293   -1.8918 H   0  0  0  0  0  0  0  0  0  0  0  0
   -4.6656    5.9812   -2.3453 H   0  0  0  0  0  0  0  0  0  0  0  0
   -5.8086    6.2067   -4.5146 H   0  0  0  0  0  0  0  0  0  0  0  0
   -7.9531    2.5983   -3.7597 H   0  0  0  0  0  0  0  0  0  0  0  0
   -6.8073    2.3708   -1.5921 H   0  0  0  0  0  0  0  0  0  0  0  0
   -4.4516    1.3286   -0.0981 H   0  0  0  0  0  0  0  0  0  0  0  0
   -3.2561    1.2305   -1.4173 H   0  0  0  0  0  0  0  0  0  0  0  0
   -2.2586    0.1601    0.5060 H   0  0  0  0  0  0  0  0  0  0  0  0
   -2.7052    1.5224    1.5661 H   0  0  0  0  0  0  0  0  0  0  0  0
  1  2  2  0
  2  3  1  0
  2 10  1  0
  3  8  2  0
  3  4  1  0
  4  5  2  0
  4 29  1  0
  5  6  1  0
  5 30  1  0
  6  7  2  0
  6 31  1  0
  7  8  1  0
  7 32  1  0
  8  9  1  0
  9 33  1  0
 10 28  1  0
 10 11  1  0
 11 12  1  0
 11 34  1  1
 11 35  1  0
 12 13  1  0
 12 36  1  6
 12 37  1  0
 14 13  1  6
 13 27  1  0
 14 15  2  0
 14 16  2  0
 14 17  1  0
 17 26  2  0
 17 18  1  0
 18 19  2  0
 18 38  1  0
 19 20  1  0
 19 39  1  0
 20 21  1  0
 20 25  2  0
 21 22  1  6
 21 23  1  0
 21 24  1  0
 25 26  1  0
 25 40  1  0
 26 41  1  0
 27 28  1  0
 27 42  1  1
 27 43  1  0
 28 44  1  1
 28 45  1  0
M  END
$$$$
