ZINC000012793038
     RDKit          3D

 51 53  0  0  1  0  0  0  0  0999 V2000
   -0.2511    1.4935   -0.0990 C   0  0  1  0  0  0  0  0  0  0  0  0
    0.0015   -0.0119    0.0047 C   0  0  1  0  0  0  0  0  0  0  0  0
   -0.9501   -0.5339    0.1054 H   0  0  0  0  0  0  0  0  0  0  0  0
    0.6709   -0.4649   -1.1737 O   0  0  0  0  0  0  0  0  0  0  0  0
   -0.1065   -0.7748   -2.2444 C   0  0  0  0  0  0  0  0  0  0  0  0
    0.4644   -1.3311   -3.3799 C   0  0  0  0  0  0  0  0  0  0  0  0
   -0.3281   -1.6456   -4.4668 C   0  0  0  0  0  0  0  0  0  0  0  0
   -1.6891   -1.4060   -4.4239 C   0  0  0  0  0  0  0  0  0  0  0  0
   -2.2605   -0.8512   -3.2936 C   0  0  0  0  0  0  0  0  0  0  0  0
   -1.4732   -0.5406   -2.2017 C   0  0  0  0  0  0  0  0  0  0  0  0
    0.8599   -0.2954    1.2105 C   0  0  0  0  0  0  0  0  0  0  0  0
    1.9756   -0.7488    1.0675 O   0  0  0  0  0  0  0  0  0  0  0  0
    0.3877   -0.0450    2.4477 N   0  0  0  0  0  0  0  0  0  0  0  0
   -0.9646    0.4987    2.6364 C   0  0  1  0  0  0  0  0  0  0  0  0
   -1.7400   -0.4318    3.5772 C   0  0  1  0  0  0  0  0  0  0  0  0
   -0.9121   -0.6980    4.7619 N   0  0  0  0  0  0  0  0  0  0  0  0
   -1.4927   -0.3913    6.2822 S   0  0  1  0  0  0  0  0  0  0  0  0
   -0.3568   -0.2110    7.1167 O   0  0  0  0  0  0  0  0  0  0  0  0
   -2.5108    0.5886    6.1328 O   0  0  0  0  0  0  0  0  0  0  0  0
   -2.2925   -1.8586    6.8408 C   0  0  0  0  0  0  0  0  0  0  0  0
   -3.6366   -2.0538    6.5837 C   0  0  0  0  0  0  0  0  0  0  0  0
   -4.2641   -3.2049    7.0220 C   0  0  0  0  0  0  0  0  0  0  0  0
   -3.5474   -4.1610    7.7169 C   0  0  0  0  0  0  0  0  0  0  0  0
   -4.2316   -5.4157    8.1951 C   0  0  1  0  0  0  0  0  0  0  0  0
   -4.1402   -6.4022    7.2073 F   0  0  0  0  0  0  0  0  0  0  0  0
   -3.6116   -5.8682    9.3648 F   0  0  0  0  0  0  0  0  0  0  0  0
   -5.5782   -5.1416    8.4572 F   0  0  0  0  0  0  0  0  0  0  0  0
   -2.2029   -3.9665    7.9728 C   0  0  0  0  0  0  0  0  0  0  0  0
   -1.5745   -2.8172    7.5312 C   0  0  0  0  0  0  0  0  0  0  0  0
    0.4402   -1.2416    4.5733 C   0  0  1  0  0  0  0  0  0  0  0  0
    1.2136   -0.3164    3.6327 C   0  0  1  0  0  0  0  0  0  0  0  0
    0.7005    2.0155   -0.1996 H   0  0  0  0  0  0  0  0  0  0  0  0
   -0.8720    1.6985   -0.9711 H   0  0  0  0  0  0  0  0  0  0  0  0
   -0.7617    1.8390    0.7999 H   0  0  0  0  0  0  0  0  0  0  0  0
    1.5276   -1.5178   -3.4141 H   0  0  0  0  0  0  0  0  0  0  0  0
    0.1159   -2.0787   -5.3509 H   0  0  0  0  0  0  0  0  0  0  0  0
   -2.3070   -1.6522   -5.2748 H   0  0  0  0  0  0  0  0  0  0  0  0
   -3.3238   -0.6646   -3.2627 H   0  0  0  0  0  0  0  0  0  0  0  0
   -1.9200   -0.1072   -1.3191 H   0  0  0  0  0  0  0  0  0  0  0  0
   -0.9007    1.4937    3.0768 H   0  0  0  0  0  0  0  0  0  0  0  0
   -1.4743    0.5537    1.6745 H   0  0  0  0  0  0  0  0  0  0  0  0
   -2.6703    0.0480    3.8814 H   0  0  0  0  0  0  0  0  0  0  0  0
   -1.9592   -1.3691    3.0659 H   0  0  0  0  0  0  0  0  0  0  0  0
   -4.1966   -1.3067    6.0408 H   0  0  0  0  0  0  0  0  0  0  0  0
   -5.3145   -3.3570    6.8218 H   0  0  0  0  0  0  0  0  0  0  0  0
   -1.6429   -4.7137    8.5154 H   0  0  0  0  0  0  0  0  0  0  0  0
   -0.5241   -2.6652    7.7311 H   0  0  0  0  0  0  0  0  0  0  0  0
    0.9499   -1.2967    5.5352 H   0  0  0  0  0  0  0  0  0  0  0  0
    0.3763   -2.2367    4.1329 H   0  0  0  0  0  0  0  0  0  0  0  0
    2.1435   -0.7974    3.3293 H   0  0  0  0  0  0  0  0  0  0  0  0
    1.4333    0.6220    4.1417 H   0  0  0  0  0  0  0  0  0  0  0  0
  1  2  1  0
  1 32  1  6
  1 33  1  0
  1 34  1  0
  2  3  1  1
  2  4  1  0
  2 11  1  0
  4  5  1  0
  5 10  2  0
  5  6  1  0
  6  7  2  0
  6 35  1  0
  7  8  1  0
  7 36  1  0
  8  9  2  0
  8 37  1  0
  9 10  1  0
  9 38  1  0
 10 39  1  0
 11 12  2  0
 11 13  1  0
 13 31  1  0
 13 14  1  0
 14 15  1  0
 14 40  1  1
 14 41  1  0
 15 16  1  0
 15 42  1  1
 15 43  1  0
 17 16  1  6
 16 30  1  0
 17 18  2  0
 17 19  2  0
 17 20  1  0
 20 29  2  0
 20 21  1  0
 21 22  2  0
 21 44  1  0
 22 23  1  0
 22 45  1  0
 23 24  1  0
 23 28  2  0
 24 25  1  6
 24 26  1  0
 24 27  1  0
 28 29  1  0
 28 46  1  0
 29 47  1  0
 30 31  1  0
 30 48  1  1
 30 49  1  0
 31 50  1  6
 31 51  1  0
M  END
$$$$
