ZINC000408534421
     RDKit          3D

 62 63  0  0  1  0  0  0  0  0999 V2000
   -0.0187    1.5258    0.0104 C   0  0  1  0  0  0  0  0  0  0  0  0
    0.0021   -0.0041    0.0020 C   0  0  1  0  0  0  0  0  0  0  0  0
    0.7421   -0.5109    1.2415 C   0  0  1  0  0  0  0  0  0  0  0  0
    0.7628   -2.0407    1.2331 C   0  0  1  0  0  0  0  0  0  0  0  0
    1.1931   -2.3931    0.2957 H   0  0  0  0  0  0  0  0  0  0  0  0
    1.6083   -2.5458    2.4040 C   0  0  1  0  0  0  0  0  0  0  0  0
   -0.6052   -2.5484    1.3639 N   0  0  0  0  0  0  0  0  0  0  0  0
   -0.9177   -3.7721    0.8935 C   0  0  0  0  0  0  0  0  0  0  0  0
   -0.0664   -4.4531    0.3620 O   0  0  0  0  0  0  0  0  0  0  0  0
   -2.3249   -4.2944    1.0279 C   0  0  1  0  0  0  0  0  0  0  0  0
   -2.4060   -5.6354    0.4437 N   0  0  0  0  0  0  0  0  0  0  0  0
   -2.0445   -6.8069    1.2457 C   0  0  1  0  0  0  0  0  0  0  0  0
   -3.2533   -7.2528    2.0709 C   0  0  1  0  0  0  0  0  0  0  0  0
   -2.8814   -8.4579    2.8958 C   0  0  0  0  0  0  0  0  0  0  0  0
   -3.0505   -9.7286    2.3785 C   0  0  0  0  0  0  0  0  0  0  0  0
   -2.7094  -10.8339    3.1352 C   0  0  0  0  0  0  0  0  0  0  0  0
   -2.1987  -10.6686    4.4091 C   0  0  0  0  0  0  0  0  0  0  0  0
   -2.0287   -9.3979    4.9261 C   0  0  0  0  0  0  0  0  0  0  0  0
   -2.3659   -8.2924    4.1677 C   0  0  0  0  0  0  0  0  0  0  0  0
   -2.9064   -5.8270   -1.1232 S   0  0  1  0  0  0  0  0  0  0  0  0
   -3.4050   -7.1537   -1.2257 O   0  0  0  0  0  0  0  0  0  0  0  0
   -3.6812   -4.6788   -1.4403 O   0  0  0  0  0  0  0  0  0  0  0  0
   -1.4705   -5.7551   -2.1418 C   0  0  0  0  0  0  0  0  0  0  0  0
   -1.0372   -4.5400   -2.6388 C   0  0  0  0  0  0  0  0  0  0  0  0
    0.0888   -4.4809   -3.4373 C   0  0  0  0  0  0  0  0  0  0  0  0
    0.7846   -5.6420   -3.7402 C   0  0  0  0  0  0  0  0  0  0  0  0
    1.8926   -5.5864   -4.5251 O   0  0  0  0  0  0  0  0  0  0  0  0
    2.2844   -4.2983   -5.0041 C   0  0  1  0  0  0  0  0  0  0  0  0
    0.3477   -6.8603   -3.2401 C   0  0  0  0  0  0  0  0  0  0  0  0
    1.1015   -8.1236   -3.5668 C   0  0  1  0  0  0  0  0  0  0  0  0
   -0.7755   -6.9134   -2.4379 C   0  0  0  0  0  0  0  0  0  0  0  0
    1.0039    1.9031    0.0027 H   0  0  0  0  0  0  0  0  0  0  0  0
   -0.5459    1.8868   -0.8726 H   0  0  0  0  0  0  0  0  0  0  0  0
   -0.5289    1.8773    0.9072 H   0  0  0  0  0  0  0  0  0  0  0  0
   -1.0205   -0.3814    0.0098 H   0  0  0  0  0  0  0  0  0  0  0  0
    0.5123   -0.3556   -0.8948 H   0  0  0  0  0  0  0  0  0  0  0  0
    1.7647   -0.1336    1.2338 H   0  0  0  0  0  0  0  0  0  0  0  0
    0.2319   -0.1594    2.1383 H   0  0  0  0  0  0  0  0  0  0  0  0
    1.1780   -2.1934    3.3415 H   0  0  0  0  0  0  0  0  0  0  0  0
    1.6231   -3.6357    2.3980 H   0  0  0  0  0  0  0  0  0  0  0  0
    2.6261   -2.1681    2.3068 H   0  0  0  0  0  0  0  0  0  0  0  0
   -1.2861   -2.0038    1.7889 H   0  0  0  0  0  0  0  0  0  0  0  0
   -2.5961   -4.3405    2.0827 H   0  0  0  0  0  0  0  0  0  0  0  0
   -3.0112   -3.6282    0.5052 H   0  0  0  0  0  0  0  0  0  0  0  0
   -1.7359   -7.6177    0.5859 H   0  0  0  0  0  0  0  0  0  0  0  0
   -1.2230   -6.5499    1.9144 H   0  0  0  0  0  0  0  0  0  0  0  0
   -3.5619   -6.4420    2.7307 H   0  0  0  0  0  0  0  0  0  0  0  0
   -4.0748   -7.5098    1.4022 H   0  0  0  0  0  0  0  0  0  0  0  0
   -3.4495   -9.8577    1.3833 H   0  0  0  0  0  0  0  0  0  0  0  0
   -2.8422  -11.8267    2.7313 H   0  0  0  0  0  0  0  0  0  0  0  0
   -1.9329  -11.5323    5.0006 H   0  0  0  0  0  0  0  0  0  0  0  0
   -1.6301   -9.2687    5.9215 H   0  0  0  0  0  0  0  0  0  0  0  0
   -2.2330   -7.2996    4.5716 H   0  0  0  0  0  0  0  0  0  0  0  0
   -1.5795   -3.6363   -2.4030 H   0  0  0  0  0  0  0  0  0  0  0  0
    0.4267   -3.5314   -3.8257 H   0  0  0  0  0  0  0  0  0  0  0  0
    3.1808   -4.3955   -5.6165 H   0  0  0  0  0  0  0  0  0  0  0  0
    1.4793   -3.8732   -5.6034 H   0  0  0  0  0  0  0  0  0  0  0  0
    2.4918   -3.6436   -4.1577 H   0  0  0  0  0  0  0  0  0  0  0  0
    1.8678   -8.2952   -2.8109 H   0  0  0  0  0  0  0  0  0  0  0  0
    0.4100   -8.9660   -3.5809 H   0  0  0  0  0  0  0  0  0  0  0  0
    1.5720   -8.0234   -4.5449 H   0  0  0  0  0  0  0  0  0  0  0  0
   -1.1158   -7.8614   -2.0481 H   0  0  0  0  0  0  0  0  0  0  0  0
  1  2  1  0
  1 32  1  6
  1 33  1  0
  1 34  1  0
  2  3  1  0
  2 35  1  1
  2 36  1  0
  3  4  1  0
  3 37  1  6
  3 38  1  0
  4  5  1  6
  4  6  1  0
  4  7  1  0
  6 39  1  1
  6 40  1  0
  6 41  1  0
  7  8  1  0
  7 42  1  0
  8  9  2  0
  8 10  1  0
 10 11  1  0
 10 43  1  1
 10 44  1  0
 11 12  1  0
 20 11  1  1
 12 13  1  0
 12 45  1  6
 12 46  1  0
 13 14  1  0
 13 47  1  1
 13 48  1  0
 14 19  2  0
 14 15  1  0
 15 16  2  0
 15 49  1  0
 16 17  1  0
 16 50  1  0
 17 18  2  0
 17 51  1  0
 18 19  1  0
 18 52  1  0
 19 53  1  0
 20 21  2  0
 20 22  2  0
 20 23  1  0
 23 31  2  0
 23 24  1  0
 24 25  2  0
 24 54  1  0
 25 26  1  0
 25 55  1  0
 26 27  1  0
 26 29  2  0
 27 28  1  0
 28 56  1  6
 28 57  1  0
 28 58  1  0
 29 30  1  0
 29 31  1  0
 30 59  1  1
 30 60  1  0
 30 61  1  0
 31 62  1  0
M  END
$$$$
