ZINC000012850918
     RDKit          3D

 57 60  0  0  1  0  0  0  0  0999 V2000
    0.5125    1.2523   -0.0588 C   0  0  1  0  0  0  0  0  0  0  0  0
    0.5014   -0.2502    0.0574 C   0  0  0  0  0  0  0  0  0  0  0  0
    0.6667   -1.1082   -0.9076 N   0  0  0  0  0  0  0  0  0  0  0  0
    0.6066   -2.2471   -0.5058 O   0  0  0  0  0  0  0  0  0  0  0  0
    0.3873   -2.2925    0.8157 C   0  0  0  0  0  0  0  0  0  0  0  0
    0.2536   -3.5294    1.6662 C   0  0  1  0  0  0  0  0  0  0  0  0
    0.3156   -1.0071    1.2369 C   0  0  0  0  0  0  0  0  0  0  0  0
    0.0431   -0.4155    2.8741 S   0  0  1  0  0  0  0  0  0  0  0  0
   -0.4889    0.8957    2.7435 O   0  0  0  0  0  0  0  0  0  0  0  0
   -0.6232   -1.4586    3.5720 O   0  0  0  0  0  0  0  0  0  0  0  0
    1.5277   -0.2487    3.5885 N   0  0  0  0  0  0  0  0  0  0  0  0
    2.2365   -1.2927    4.3509 C   0  0  1  0  0  0  0  0  0  0  0  0
    3.7331   -0.9036    4.2592 C   0  0  1  0  0  0  0  0  0  0  0  0
    3.6577    0.6443    4.3342 C   0  0  1  0  0  0  0  0  0  0  0  0
    2.3601    0.9629    3.5622 C   0  0  2  0  0  0  0  0  0  0  0  0
    2.5978    1.2330    2.5333 H   0  0  0  0  0  0  0  0  0  0  0  0
    1.6294    2.0969    4.2339 C   0  0  0  0  0  0  0  0  0  0  0  0
    0.5149    1.9211    4.6788 O   0  0  0  0  0  0  0  0  0  0  0  0
    2.2144    3.3064    4.3401 N   0  0  0  0  0  0  0  0  0  0  0  0
    3.5619    3.5356    3.8002 C   0  0  1  0  0  0  0  0  0  0  0  0
    3.5054    4.7208    2.8284 C   0  0  1  0  0  0  0  0  0  0  0  0
    2.8069    5.8343    3.4858 N   0  0  0  0  0  0  0  0  0  0  0  0
    3.4099    7.0820    3.5946 C   0  0  0  0  0  0  0  0  0  0  0  0
    4.5782    7.3470    2.8877 C   0  0  0  0  0  0  0  0  0  0  0  0
    5.1674    8.5931    3.0048 C   0  0  0  0  0  0  0  0  0  0  0  0
    4.5661    9.5357    3.8280 C   0  0  0  0  0  0  0  0  0  0  0  0
    5.1726   10.9063    3.9854 C   0  0  1  0  0  0  0  0  0  0  0  0
    4.6445   11.7642    3.0146 F   0  0  0  0  0  0  0  0  0  0  0  0
    4.8759   11.4041    5.2587 F   0  0  0  0  0  0  0  0  0  0  0  0
    6.5603   10.8230    3.8289 F   0  0  0  0  0  0  0  0  0  0  0  0
    3.4067    9.2047    4.5006 C   0  0  0  0  0  0  0  0  0  0  0  0
    2.8639    8.0097    4.3660 N   0  0  0  0  0  0  0  0  0  0  0  0
    1.4594    5.6051    4.0258 C   0  0  1  0  0  0  0  0  0  0  0  0
    1.5137    4.4214    4.9926 C   0  0  1  0  0  0  0  0  0  0  0  0
    1.5298    1.6197    0.0763 H   0  0  0  0  0  0  0  0  0  0  0  0
    0.1490    1.5432   -1.0444 H   0  0  0  0  0  0  0  0  0  0  0  0
   -0.1334    1.6807    0.7077 H   0  0  0  0  0  0  0  0  0  0  0  0
    0.3627   -4.4146    1.0397 H   0  0  0  0  0  0  0  0  0  0  0  0
    1.0287   -3.5289    2.4326 H   0  0  0  0  0  0  0  0  0  0  0  0
   -0.7272   -3.5393    2.1415 H   0  0  0  0  0  0  0  0  0  0  0  0
    1.9076   -1.2928    5.3901 H   0  0  0  0  0  0  0  0  0  0  0  0
    2.0705   -2.2708    3.8995 H   0  0  0  0  0  0  0  0  0  0  0  0
    4.2944   -1.3087    5.1012 H   0  0  0  0  0  0  0  0  0  0  0  0
    4.1639   -1.2283    3.3120 H   0  0  0  0  0  0  0  0  0  0  0  0
    3.5863    0.9772    5.3697 H   0  0  0  0  0  0  0  0  0  0  0  0
    4.5181    1.0967    3.8411 H   0  0  0  0  0  0  0  0  0  0  0  0
    4.2487    3.7633    4.6153 H   0  0  0  0  0  0  0  0  0  0  0  0
    3.9005    2.6447    3.2713 H   0  0  0  0  0  0  0  0  0  0  0  0
    4.5179    5.0277    2.5665 H   0  0  0  0  0  0  0  0  0  0  0  0
    2.9642    4.4301    1.9280 H   0  0  0  0  0  0  0  0  0  0  0  0
    5.0194    6.5900    2.2563 H   0  0  0  0  0  0  0  0  0  0  0  0
    6.0750    8.8274    2.4682 H   0  0  0  0  0  0  0  0  0  0  0  0
    2.9356    9.9349    5.1420 H   0  0  0  0  0  0  0  0  0  0  0  0
    1.1208    6.4960    4.5547 H   0  0  0  0  0  0  0  0  0  0  0  0
    0.7726    5.3774    3.2106 H   0  0  0  0  0  0  0  0  0  0  0  0
    0.5006    4.1156    5.2537 H   0  0  0  0  0  0  0  0  0  0  0  0
    2.0551    4.7096    5.8937 H   0  0  0  0  0  0  0  0  0  0  0  0
  1  2  1  0
  1 35  1  1
  1 36  1  0
  1 37  1  0
  2  7  1  0
  2  3  2  0
  3  4  1  0
  4  5  1  0
  5  6  1  0
  5  7  2  0
  6 38  1  6
  6 39  1  0
  6 40  1  0
  7  8  1  0
  8  9  2  0
  8 10  2  0
  8 11  1  1
 11 15  1  0
 11 12  1  0
 12 13  1  0
 12 41  1  1
 12 42  1  0
 13 14  1  0
 13 43  1  1
 13 44  1  0
 14 15  1  0
 14 45  1  1
 14 46  1  0
 15 16  1  6
 15 17  1  0
 17 18  2  0
 17 19  1  0
 19 34  1  0
 19 20  1  0
 20 21  1  0
 20 47  1  1
 20 48  1  0
 21 22  1  0
 21 49  1  6
 21 50  1  0
 22 23  1  0
 22 33  1  0
 23 32  2  0
 23 24  1  0
 24 25  2  0
 24 51  1  0
 25 26  1  0
 25 52  1  0
 26 27  1  0
 26 31  2  0
 27 28  1  6
 27 29  1  0
 27 30  1  0
 31 32  1  0
 31 53  1  0
 33 34  1  0
 33 54  1  1
 33 55  1  0
 34 56  1  1
 34 57  1  0
M  END
$$$$
