ZINC000408586446
     RDKit          3D

 65 68  0  0  1  0  0  0  0  0999 V2000
    0.2611   -1.8665    4.0532 C   0  0  1  0  0  0  0  0  0  0  0  0
    0.4214   -0.3830    3.7147 C   0  0  1  0  0  0  0  0  0  0  0  0
    1.1798    0.0575    4.3619 H   0  0  0  0  0  0  0  0  0  0  0  0
    0.8224   -0.2466    2.3499 O   0  0  0  0  0  0  0  0  0  0  0  0
    2.1487   -0.3710    2.0811 C   0  0  0  0  0  0  0  0  0  0  0  0
    2.6219   -0.1428    0.7971 C   0  0  0  0  0  0  0  0  0  0  0  0
    3.9706   -0.2696    0.5265 C   0  0  0  0  0  0  0  0  0  0  0  0
    4.8487   -0.6240    1.5340 C   0  0  0  0  0  0  0  0  0  0  0  0
    6.5684   -0.7853    1.1855 S   0  0  1  0  0  0  0  0  0  0  0  0
    7.0729   -1.7538    2.0948 O   0  0  0  0  0  0  0  0  0  0  0  0
    6.6818   -0.9106   -0.2254 O   0  0  0  0  0  0  0  0  0  0  0  0
    7.2868    0.6518    1.5867 N   0  0  0  0  0  0  0  0  0  0  0  0
    7.6908    0.9073    2.9715 C   0  0  1  0  0  0  0  0  0  0  0  0
    9.1432    0.5455    3.1460 C   0  0  0  0  0  0  0  0  0  0  0  0
    9.4959   -0.7383    3.5181 C   0  0  0  0  0  0  0  0  0  0  0  0
   10.8282   -1.0702    3.6781 C   0  0  0  0  0  0  0  0  0  0  0  0
   11.8079   -0.1184    3.4656 C   0  0  0  0  0  0  0  0  0  0  0  0
   11.4554    1.1651    3.0927 C   0  0  0  0  0  0  0  0  0  0  0  0
   10.1232    1.4959    2.9285 C   0  0  0  0  0  0  0  0  0  0  0  0
    7.5184    1.6676    0.5568 C   0  0  1  0  0  0  0  0  0  0  0  0
    6.4139    2.6917    0.6040 C   0  0  0  0  0  0  0  0  0  0  0  0
    5.3082    2.5542   -0.2142 C   0  0  0  0  0  0  0  0  0  0  0  0
    4.2951    3.4936   -0.1709 C   0  0  0  0  0  0  0  0  0  0  0  0
    4.3874    4.5704    0.6910 C   0  0  0  0  0  0  0  0  0  0  0  0
    5.4927    4.7075    1.5099 C   0  0  0  0  0  0  0  0  0  0  0  0
    6.5038    3.7658    1.4696 C   0  0  0  0  0  0  0  0  0  0  0  0
    4.3797   -0.8515    2.8147 C   0  0  0  0  0  0  0  0  0  0  0  0
    3.0326   -0.7209    3.0915 C   0  0  0  0  0  0  0  0  0  0  0  0
   -0.8920    0.3252    3.9256 C   0  0  0  0  0  0  0  0  0  0  0  0
   -1.4763    0.8130    2.9814 O   0  0  0  0  0  0  0  0  0  0  0  0
   -1.4172    0.4165    5.1634 N   0  0  0  0  0  0  0  0  0  0  0  0
   -0.7236   -0.1621    6.3251 C   0  0  1  0  0  0  0  0  0  0  0  0
   -0.6340    0.9094    7.4178 C   0  0  1  0  0  0  0  0  0  0  0  0
   -1.9370    1.4459    7.6587 O   0  0  0  0  0  0  0  0  0  0  0  0
   -2.5150    2.1082    6.5313 C   0  0  1  0  0  0  0  0  0  0  0  0
   -2.6981    1.1030    5.3941 C   0  0  1  0  0  0  0  0  0  0  0  0
    1.2111   -2.3787    3.9007 H   0  0  0  0  0  0  0  0  0  0  0  0
   -0.0447   -1.9705    5.0943 H   0  0  0  0  0  0  0  0  0  0  0  0
   -0.4972   -2.3070    3.4060 H   0  0  0  0  0  0  0  0  0  0  0  0
    1.9363    0.1333    0.0096 H   0  0  0  0  0  0  0  0  0  0  0  0
    4.3395   -0.0920   -0.4729 H   0  0  0  0  0  0  0  0  0  0  0  0
    7.5491    1.9631    3.2024 H   0  0  0  0  0  0  0  0  0  0  0  0
    7.0825    0.3034    3.6448 H   0  0  0  0  0  0  0  0  0  0  0  0
    8.7304   -1.4819    3.6841 H   0  0  0  0  0  0  0  0  0  0  0  0
   11.1037   -2.0730    3.9695 H   0  0  0  0  0  0  0  0  0  0  0  0
   12.8488   -0.3775    3.5914 H   0  0  0  0  0  0  0  0  0  0  0  0
   12.2208    1.9088    2.9270 H   0  0  0  0  0  0  0  0  0  0  0  0
    9.8478    2.4987    2.6371 H   0  0  0  0  0  0  0  0  0  0  0  0
    8.4755    2.1568    0.7376 H   0  0  0  0  0  0  0  0  0  0  0  0
    7.5324    1.1934   -0.4246 H   0  0  0  0  0  0  0  0  0  0  0  0
    5.2361    1.7129   -0.8876 H   0  0  0  0  0  0  0  0  0  0  0  0
    3.4316    3.3865   -0.8106 H   0  0  0  0  0  0  0  0  0  0  0  0
    3.5962    5.3048    0.7244 H   0  0  0  0  0  0  0  0  0  0  0  0
    5.5650    5.5490    2.1830 H   0  0  0  0  0  0  0  0  0  0  0  0
    7.3673    3.8729    2.1094 H   0  0  0  0  0  0  0  0  0  0  0  0
    5.0677   -1.1279    3.6000 H   0  0  0  0  0  0  0  0  0  0  0  0
    2.6668   -0.8988    4.0920 H   0  0  0  0  0  0  0  0  0  0  0  0
   -1.2836   -1.0200    6.6973 H   0  0  0  0  0  0  0  0  0  0  0  0
    0.2794   -0.4755    6.0353 H   0  0  0  0  0  0  0  0  0  0  0  0
   -0.2487    0.4632    8.3346 H   0  0  0  0  0  0  0  0  0  0  0  0
    0.0335    1.7070    7.0917 H   0  0  0  0  0  0  0  0  0  0  0  0
   -3.4830    2.5244    6.8103 H   0  0  0  0  0  0  0  0  0  0  0  0
   -1.8543    2.9101    6.2020 H   0  0  0  0  0  0  0  0  0  0  0  0
   -3.0046    1.6256    4.4880 H   0  0  0  0  0  0  0  0  0  0  0  0
   -3.4565    0.3704    5.6702 H   0  0  0  0  0  0  0  0  0  0  0  0
  1  2  1  0
  1 37  1  1
  1 38  1  0
  1 39  1  0
  2  3  1  1
  2  4  1  0
  2 29  1  0
  4  5  1  0
  5 28  2  0
  5  6  1  0
  6  7  2  0
  6 40  1  0
  7  8  1  0
  7 41  1  0
  8  9  1  0
  8 27  2  0
  9 10  2  0
  9 11  2  0
  9 12  1  1
 12 13  1  0
 12 20  1  0
 13 14  1  0
 13 42  1  1
 13 43  1  0
 14 19  2  0
 14 15  1  0
 15 16  2  0
 15 44  1  0
 16 17  1  0
 16 45  1  0
 17 18  2  0
 17 46  1  0
 18 19  1  0
 18 47  1  0
 19 48  1  0
 20 21  1  0
 20 49  1  1
 20 50  1  0
 21 26  2  0
 21 22  1  0
 22 23  2  0
 22 51  1  0
 23 24  1  0
 23 52  1  0
 24 25  2  0
 24 53  1  0
 25 26  1  0
 25 54  1  0
 26 55  1  0
 27 28  1  0
 27 56  1  0
 28 57  1  0
 29 30  2  0
 29 31  1  0
 31 36  1  0
 31 32  1  0
 32 33  1  0
 32 58  1  1
 32 59  1  0
 33 34  1  0
 33 60  1  1
 33 61  1  0
 34 35  1  0
 35 36  1  0
 35 62  1  1
 35 63  1  0
 36 64  1  6
 36 65  1  0
M  END
$$$$
