ZINC000015386090
     RDKit          3D

 47 49  0  0  1  0  0  0  0  0999 V2000
   -0.0187    1.5258    0.0104 C   0  0  1  0  0  0  0  0  0  0  0  0
    0.0021   -0.0041    0.0020 C   0  0  1  0  0  0  0  0  0  0  0  0
   -0.8825   -0.4839   -0.4168 H   0  0  0  0  0  0  0  0  0  0  0  0
    1.3509   -0.6911   -0.2209 C   0  0  1  0  0  0  0  0  0  0  0  0
    0.7031   -0.7075    1.1659 C   0  0  1  0  0  0  0  0  0  0  0  0
    0.2800   -1.6503    1.5126 H   0  0  0  0  0  0  0  0  0  0  0  0
    1.3211    0.1590    2.2328 C   0  0  0  0  0  0  0  0  0  0  0  0
    1.2516    1.3669    2.1486 O   0  0  0  0  0  0  0  0  0  0  0  0
    1.9511   -0.4083    3.2806 N   0  0  0  0  0  0  0  0  0  0  0  0
    2.0483   -1.8704    3.3925 C   0  0  1  0  0  0  0  0  0  0  0  0
    3.5266   -2.2538    3.5342 C   0  0  1  0  0  0  0  0  0  0  0  0
    4.1289   -1.4214    4.5850 N   0  0  0  0  0  0  0  0  0  0  0  0
    4.9039   -2.1185    5.8718 S   0  0  1  0  0  0  0  0  0  0  0  0
    4.8723   -1.1642    6.9242 O   0  0  0  0  0  0  0  0  0  0  0  0
    4.3737   -3.4309    5.9965 O   0  0  0  0  0  0  0  0  0  0  0  0
    6.5970   -2.3065    5.4215 C   0  0  0  0  0  0  0  0  0  0  0  0
    7.0212   -3.4637    4.7954 C   0  0  0  0  0  0  0  0  0  0  0  0
    8.3495   -3.6113    4.4421 C   0  0  0  0  0  0  0  0  0  0  0  0
    8.8121   -4.8729    3.7601 C   0  0  1  0  0  0  0  0  0  0  0  0
    8.7029   -4.7205    2.3737 F   0  0  0  0  0  0  0  0  0  0  0  0
   10.1463   -5.1235    4.0980 F   0  0  0  0  0  0  0  0  0  0  0  0
    8.0164   -5.9461    4.1753 F   0  0  0  0  0  0  0  0  0  0  0  0
    9.2533   -2.6013    4.7140 C   0  0  0  0  0  0  0  0  0  0  0  0
    8.8290   -1.4440    5.3397 C   0  0  0  0  0  0  0  0  0  0  0  0
    9.8145   -0.3432    5.6366 C   0  0  1  0  0  0  0  0  0  0  0  0
   11.0849   -0.7214    5.1891 F   0  0  0  0  0  0  0  0  0  0  0  0
    9.4181    0.8270    4.9802 F   0  0  0  0  0  0  0  0  0  0  0  0
    9.8552   -0.1132    7.0159 F   0  0  0  0  0  0  0  0  0  0  0  0
    7.4999   -1.2946    5.6891 C   0  0  0  0  0  0  0  0  0  0  0  0
    4.0317    0.0408    4.4730 C   0  0  1  0  0  0  0  0  0  0  0  0
    2.5583    0.4242    4.3284 C   0  0  1  0  0  0  0  0  0  0  0  0
    1.0039    1.9031    0.0027 H   0  0  0  0  0  0  0  0  0  0  0  0
   -0.5459    1.8868   -0.8726 H   0  0  0  0  0  0  0  0  0  0  0  0
   -0.5289    1.8773    0.9072 H   0  0  0  0  0  0  0  0  0  0  0  0
    1.3536   -1.6231   -0.7861 H   0  0  0  0  0  0  0  0  0  0  0  0
    2.2234   -0.0532   -0.3616 H   0  0  0  0  0  0  0  0  0  0  0  0
    1.4972   -2.2076    4.2704 H   0  0  0  0  0  0  0  0  0  0  0  0
    1.6343   -2.3342    2.4972 H   0  0  0  0  0  0  0  0  0  0  0  0
    3.6070   -3.3054    3.8096 H   0  0  0  0  0  0  0  0  0  0  0  0
    4.0418   -2.0800    2.5895 H   0  0  0  0  0  0  0  0  0  0  0  0
    6.3150   -4.2526    4.5826 H   0  0  0  0  0  0  0  0  0  0  0  0
   10.2911   -2.7166    4.4380 H   0  0  0  0  0  0  0  0  0  0  0  0
    7.1684   -0.3904    6.1779 H   0  0  0  0  0  0  0  0  0  0  0  0
    4.4457    0.5045    5.3684 H   0  0  0  0  0  0  0  0  0  0  0  0
    4.5828    0.3779    3.5952 H   0  0  0  0  0  0  0  0  0  0  0  0
    2.4794    1.4759    4.0531 H   0  0  0  0  0  0  0  0  0  0  0  0
    2.0408    0.2507    5.2719 H   0  0  0  0  0  0  0  0  0  0  0  0
  1  2  1  0
  1 32  1  6
  1 33  1  0
  1 34  1  0
  2  3  1  6
  2  5  1  0
  2  4  1  0
  4  5  1  0
  4 35  1  6
  4 36  1  0
  5  6  1  1
  5  7  1  0
  7  8  2  0
  7  9  1  0
  9 31  1  0
  9 10  1  0
 10 11  1  0
 10 37  1  1
 10 38  1  0
 11 12  1  0
 11 39  1  1
 11 40  1  0
 13 12  1  6
 12 30  1  0
 13 14  2  0
 13 15  2  0
 13 16  1  0
 16 29  2  0
 16 17  1  0
 17 18  2  0
 17 41  1  0
 18 19  1  0
 18 23  1  0
 19 20  1  6
 19 21  1  0
 19 22  1  0
 23 24  2  0
 23 42  1  0
 24 25  1  0
 24 29  1  0
 25 26  1  6
 25 27  1  0
 25 28  1  0
 29 43  1  0
 30 31  1  0
 30 44  1  1
 30 45  1  0
 31 46  1  6
 31 47  1  0
M  END
$$$$
