ZINC000020033128
     RDKit          3D

 62 64  0  0  0  0  0  0  0  0999 V2000
   -0.0178    1.4608    0.0101 C   0  0  1  0  0  0  0  0  0  0  0  0
    0.0021   -0.0041    0.0020 N   0  0  0  0  0  0  0  0  0  0  0  0
    1.2806   -0.7192   -0.0140 C   0  0  1  0  0  0  0  0  0  0  0  0
   -1.4206   -0.8515    0.0111 S   0  0  1  0  0  0  0  0  0  0  0  0
   -1.1207   -2.1334    0.5458 O   0  0  0  0  0  0  0  0  0  0  0  0
   -2.3996    0.0139    0.5695 O   0  0  0  0  0  0  0  0  0  0  0  0
   -1.8848   -1.1094   -1.6690 C   0  0  0  0  0  0  0  0  0  0  0  0
   -2.6748   -0.1792   -2.3184 C   0  0  0  0  0  0  0  0  0  0  0  0
   -3.0389   -0.3815   -3.6365 C   0  0  0  0  0  0  0  0  0  0  0  0
   -2.6127   -1.5137   -4.3053 C   0  0  0  0  0  0  0  0  0  0  0  0
   -3.0101   -1.7345   -5.7421 C   0  0  1  0  0  0  0  0  0  0  0  0
   -2.0065   -1.1338   -6.6242 N   0  0  0  0  0  0  0  0  0  0  0  0
   -2.1540   -1.2080   -7.9618 C   0  0  0  0  0  0  0  0  0  0  0  0
   -3.1176   -1.7722   -8.4353 O   0  0  0  0  0  0  0  0  0  0  0  0
   -1.1217   -0.5901   -8.8692 C   0  0  1  0  0  0  0  0  0  0  0  0
   -1.5251   -0.8142  -10.3280 C   0  0  1  0  0  0  0  0  0  0  0  0
   -0.4927   -0.1963  -11.2353 C   0  0  0  0  0  0  0  0  0  0  0  0
   -0.6247    1.1198  -11.6371 C   0  0  0  0  0  0  0  0  0  0  0  0
    0.3223    1.6867  -12.4694 C   0  0  0  0  0  0  0  0  0  0  0  0
    1.4015    0.9376  -12.8996 C   0  0  0  0  0  0  0  0  0  0  0  0
    2.6082    1.6599  -13.9610 S   0  0  1  0  0  0  0  0  0  0  0  0
    3.2300    0.5850  -14.6518 O   0  0  0  0  0  0  0  0  0  0  0  0
    1.9652    2.7406  -14.6228 O   0  0  0  0  0  0  0  0  0  0  0  0
    3.7732    2.3305  -12.9938 N   0  0  0  0  0  0  0  0  0  0  0  0
    3.6646    3.7234  -12.5318 C   0  0  1  0  0  0  0  0  0  0  0  0
    3.8704    3.7464  -11.0129 C   0  0  1  0  0  0  0  0  0  0  0  0
    5.0850    3.0639  -10.6921 O   0  0  0  0  0  0  0  0  0  0  0  0
    5.0907    1.6798  -11.0499 C   0  0  1  0  0  0  0  0  0  0  0  0
    4.9445    1.5493  -12.5661 C   0  0  1  0  0  0  0  0  0  0  0  0
    1.5342   -0.3781  -12.4968 C   0  0  0  0  0  0  0  0  0  0  0  0
    0.5892   -0.9438  -11.6614 C   0  0  0  0  0  0  0  0  0  0  0  0
   -1.8217   -2.4432   -3.6564 C   0  0  0  0  0  0  0  0  0  0  0  0
   -1.4543   -2.2390   -2.3395 C   0  0  0  0  0  0  0  0  0  0  0  0
    1.0048    1.8381    0.0023 H   0  0  0  0  0  0  0  0  0  0  0  0
   -0.5450    1.8219   -0.8730 H   0  0  0  0  0  0  0  0  0  0  0  0
   -0.5280    1.8123    0.9069 H   0  0  0  0  0  0  0  0  0  0  0  0
    1.6074   -0.9021    1.0096 H   0  0  0  0  0  0  0  0  0  0  0  0
    1.1583   -1.6705   -0.5318 H   0  0  0  0  0  0  0  0  0  0  0  0
    2.0272   -0.1171   -0.5318 H   0  0  0  0  0  0  0  0  0  0  0  0
   -3.0077    0.7053   -1.7959 H   0  0  0  0  0  0  0  0  0  0  0  0
   -3.6567    0.3448   -4.1436 H   0  0  0  0  0  0  0  0  0  0  0  0
   -3.0749   -2.8043   -5.9409 H   0  0  0  0  0  0  0  0  0  0  0  0
   -3.9795   -1.2714   -5.9263 H   0  0  0  0  0  0  0  0  0  0  0  0
   -1.2358   -0.6826   -6.2456 H   0  0  0  0  0  0  0  0  0  0  0  0
   -1.0569    0.4797   -8.6704 H   0  0  0  0  0  0  0  0  0  0  0  0
   -0.1523   -1.0532   -8.6851 H   0  0  0  0  0  0  0  0  0  0  0  0
   -1.5899   -1.8840  -10.5267 H   0  0  0  0  0  0  0  0  0  0  0  0
   -2.4945   -0.3511  -10.5121 H   0  0  0  0  0  0  0  0  0  0  0  0
   -1.4679    1.7051  -11.3010 H   0  0  0  0  0  0  0  0  0  0  0  0
    0.2188    2.7147  -12.7839 H   0  0  0  0  0  0  0  0  0  0  0  0
    4.4295    4.3312  -13.0151 H   0  0  0  0  0  0  0  0  0  0  0  0
    2.6766    4.1146  -12.7743 H   0  0  0  0  0  0  0  0  0  0  0  0
    3.9314    4.7790  -10.6693 H   0  0  0  0  0  0  0  0  0  0  0  0
    3.0330    3.2482  -10.5244 H   0  0  0  0  0  0  0  0  0  0  0  0
    6.0295    1.2257  -10.7329 H   0  0  0  0  0  0  0  0  0  0  0  0
    4.2577    1.1741  -10.5616 H   0  0  0  0  0  0  0  0  0  0  0  0
    4.8061    0.5015  -12.8327 H   0  0  0  0  0  0  0  0  0  0  0  0
    5.8372    1.9384  -13.0558 H   0  0  0  0  0  0  0  0  0  0  0  0
    2.3775   -0.9632  -12.8326 H   0  0  0  0  0  0  0  0  0  0  0  0
    0.6929   -1.9717  -11.3466 H   0  0  0  0  0  0  0  0  0  0  0  0
   -1.4884   -3.3276   -4.1790 H   0  0  0  0  0  0  0  0  0  0  0  0
   -0.8363   -2.9652   -1.8324 H   0  0  0  0  0  0  0  0  0  0  0  0
  1  2  1  0
  1 34  1  6
  1 35  1  0
  1 36  1  0
  2  3  1  0
  4  2  1  6
  3 37  1  1
  3 38  1  0
  3 39  1  0
  4  5  2  0
  4  6  2  0
  4  7  1  0
  7 33  2  0
  7  8  1  0
  8  9  2  0
  8 40  1  0
  9 10  1  0
  9 41  1  0
 10 11  1  0
 10 32  2  0
 11 12  1  0
 11 42  1  6
 11 43  1  0
 12 13  1  0
 12 44  1  0
 13 14  2  0
 13 15  1  0
 15 16  1  0
 15 45  1  1
 15 46  1  0
 16 17  1  0
 16 47  1  6
 16 48  1  0
 17 31  2  0
 17 18  1  0
 18 19  2  0
 18 49  1  0
 19 20  1  0
 19 50  1  0
 20 21  1  0
 20 30  2  0
 21 22  2  0
 21 23  2  0
 21 24  1  1
 24 29  1  0
 24 25  1  0
 25 26  1  0
 25 51  1  6
 25 52  1  0
 26 27  1  0
 26 53  1  1
 26 54  1  0
 27 28  1  0
 28 29  1  0
 28 55  1  1
 28 56  1  0
 29 57  1  1
 29 58  1  0
 30 31  1  0
 30 59  1  0
 31 60  1  0
 32 33  1  0
 32 61  1  0
 33 62  1  0
M  END
$$$$
