ZINC000016576833
     RDKit          3D

 56 58  0  0  1  0  0  0  0  0999 V2000
   -0.0187    1.5258    0.0104 C   0  0  1  0  0  0  0  0  0  0  0  0
    0.0021   -0.0041    0.0020 C   0  0  2  0  0  0  0  0  0  0  0  0
    0.5123   -0.3556   -0.8948 H   0  0  0  0  0  0  0  0  0  0  0  0
   -1.3723   -0.5112    0.0124 N   0  0  0  0  0  0  0  0  0  0  0  0
   -2.0508   -0.6427   -1.1446 C   0  0  0  0  0  0  0  0  0  0  0  0
   -1.5236   -0.3413   -2.1944 O   0  0  0  0  0  0  0  0  0  0  0  0
   -3.4646   -1.1643   -1.1339 C   0  0  1  0  0  0  0  0  0  0  0  0
   -3.9776   -1.2130   -2.5053 N   0  0  0  0  0  0  0  0  0  0  0  0
   -3.7030   -2.3787   -3.3491 C   0  0  1  0  0  0  0  0  0  0  0  0
   -4.7472   -3.4632   -3.0762 C   0  0  1  0  0  0  0  0  0  0  0  0
   -4.4648   -4.6623   -3.9441 C   0  0  0  0  0  0  0  0  0  0  0  0
   -5.0294   -4.7530   -5.2027 C   0  0  0  0  0  0  0  0  0  0  0  0
   -4.7703   -5.8529   -5.9989 C   0  0  0  0  0  0  0  0  0  0  0  0
   -3.9463   -6.8620   -5.5367 C   0  0  0  0  0  0  0  0  0  0  0  0
   -3.3810   -6.7709   -4.2785 C   0  0  0  0  0  0  0  0  0  0  0  0
   -3.6366   -5.6690   -3.4840 C   0  0  0  0  0  0  0  0  0  0  0  0
   -4.8677    0.0496   -3.1018 S   0  0  1  0  0  0  0  0  0  0  0  0
   -5.7655   -0.5063   -4.0527 O   0  0  0  0  0  0  0  0  0  0  0  0
   -5.2965    0.8048   -1.9770 O   0  0  0  0  0  0  0  0  0  0  0  0
   -3.7645    1.0848   -4.0049 C   0  0  0  0  0  0  0  0  0  0  0  0
   -3.1028    2.1154   -3.3638 C   0  0  0  0  0  0  0  0  0  0  0  0
   -2.2372    2.9276   -4.0723 C   0  0  0  0  0  0  0  0  0  0  0  0
   -2.0331    2.7090   -5.4219 C   0  0  0  0  0  0  0  0  0  0  0  0
   -2.6941    1.6779   -6.0629 C   0  0  0  0  0  0  0  0  0  0  0  0
   -3.5563    0.8630   -5.3534 C   0  0  0  0  0  0  0  0  0  0  0  0
    0.7309   -0.5033    1.2229 C   0  0  0  0  0  0  0  0  0  0  0  0
    0.0808   -0.5585    2.4416 C   0  0  0  0  0  0  0  0  0  0  0  0
    0.7494   -1.0164    3.5615 C   0  0  0  0  0  0  0  0  0  0  0  0
    2.0680   -1.4196    3.4626 C   0  0  0  0  0  0  0  0  0  0  0  0
    2.7178   -1.3652    2.2438 C   0  0  0  0  0  0  0  0  0  0  0  0
    2.0479   -0.9113    1.1230 C   0  0  0  0  0  0  0  0  0  0  0  0
    1.0039    1.9031    0.0027 H   0  0  0  0  0  0  0  0  0  0  0  0
   -0.5459    1.8868   -0.8726 H   0  0  0  0  0  0  0  0  0  0  0  0
   -0.5289    1.8773    0.9072 H   0  0  0  0  0  0  0  0  0  0  0  0
   -1.7940   -0.7522    0.8520 H   0  0  0  0  0  0  0  0  0  0  0  0
   -3.4790   -2.1662   -0.7048 H   0  0  0  0  0  0  0  0  0  0  0  0
   -4.0912   -0.5035   -0.5349 H   0  0  0  0  0  0  0  0  0  0  0  0
   -3.7483   -2.0866   -4.3983 H   0  0  0  0  0  0  0  0  0  0  0  0
   -2.7096   -2.7656   -3.1222 H   0  0  0  0  0  0  0  0  0  0  0  0
   -4.7019   -3.7553   -2.0270 H   0  0  0  0  0  0  0  0  0  0  0  0
   -5.7407   -3.0764   -3.3031 H   0  0  0  0  0  0  0  0  0  0  0  0
   -5.6731   -3.9646   -5.5638 H   0  0  0  0  0  0  0  0  0  0  0  0
   -5.2119   -5.9240   -6.9819 H   0  0  0  0  0  0  0  0  0  0  0  0
   -3.7444   -7.7217   -6.1585 H   0  0  0  0  0  0  0  0  0  0  0  0
   -2.7374   -7.5595   -3.9173 H   0  0  0  0  0  0  0  0  0  0  0  0
   -3.1949   -5.5978   -2.5010 H   0  0  0  0  0  0  0  0  0  0  0  0
   -3.2623    2.2862   -2.3094 H   0  0  0  0  0  0  0  0  0  0  0  0
   -1.7208    3.7331   -3.5716 H   0  0  0  0  0  0  0  0  0  0  0  0
   -1.3574    3.3439   -5.9757 H   0  0  0  0  0  0  0  0  0  0  0  0
   -2.5348    1.5073   -7.1174 H   0  0  0  0  0  0  0  0  0  0  0  0
   -4.0728    0.0574   -5.8541 H   0  0  0  0  0  0  0  0  0  0  0  0
   -0.9493   -0.2435    2.5188 H   0  0  0  0  0  0  0  0  0  0  0  0
    0.2417   -1.0589    4.5138 H   0  0  0  0  0  0  0  0  0  0  0  0
    2.5905   -1.7767    4.3377 H   0  0  0  0  0  0  0  0  0  0  0  0
    3.7481   -1.6798    2.1666 H   0  0  0  0  0  0  0  0  0  0  0  0
    2.5556   -0.8688    0.1707 H   0  0  0  0  0  0  0  0  0  0  0  0
  1  2  1  0
  1 32  1  6
  1 33  1  0
  1 34  1  0
  2  3  1  6
  2  4  1  0
  2 26  1  0
  4  5  1  0
  4 35  1  0
  5  6  2  0
  5  7  1  0
  7  8  1  0
  7 36  1  1
  7 37  1  0
  8  9  1  0
 17  8  1  1
  9 10  1  0
  9 38  1  6
  9 39  1  0
 10 11  1  0
 10 40  1  1
 10 41  1  0
 11 16  2  0
 11 12  1  0
 12 13  2  0
 12 42  1  0
 13 14  1  0
 13 43  1  0
 14 15  2  0
 14 44  1  0
 15 16  1  0
 15 45  1  0
 16 46  1  0
 17 18  2  0
 17 19  2  0
 17 20  1  0
 20 25  2  0
 20 21  1  0
 21 22  2  0
 21 47  1  0
 22 23  1  0
 22 48  1  0
 23 24  2  0
 23 49  1  0
 24 25  1  0
 24 50  1  0
 25 51  1  0
 26 31  2  0
 26 27  1  0
 27 28  2  0
 27 52  1  0
 28 29  1  0
 28 53  1  0
 29 30  2  0
 29 54  1  0
 30 31  1  0
 30 55  1  0
 31 56  1  0
M  END
$$$$
