ZINC000069453767
     RDKit          3D

 34 35  0  0  1  0  0  0  0  0999 V2000
   -0.0162    1.3436    0.0094 N   0  0  0  0  0  0  0  0  0  0  0  0
    0.0021   -0.0041    0.0020 C   0  0  0  0  0  0  0  0  0  0  0  0
    1.0605   -0.5961   -0.0113 O   0  0  0  0  0  0  0  0  0  0  0  0
   -1.2926   -0.7753    0.0102 C   0  0  2  0  0  0  0  0  0  0  0  0
   -1.8976   -0.5198   -0.8597 H   0  0  0  0  0  0  0  0  0  0  0  0
   -2.0792   -0.5135    1.3218 C   0  0  1  0  0  0  0  0  0  0  0  0
   -1.4018   -1.5106    2.2949 C   0  0  1  0  0  0  0  0  0  0  0  0
   -1.1152   -2.7021    1.4753 N   0  0  0  0  0  0  0  0  0  0  0  0
   -0.9288   -4.2449    2.0473 S   0  0  1  0  0  0  0  0  0  0  0  0
   -0.1519   -4.9398    1.0814 O   0  0  0  0  0  0  0  0  0  0  0  0
   -0.5470   -4.1240    3.4107 O   0  0  0  0  0  0  0  0  0  0  0  0
   -2.5211   -4.9993    2.0414 C   0  0  0  0  0  0  0  0  0  0  0  0
   -2.7713   -6.0789    1.2161 C   0  0  0  0  0  0  0  0  0  0  0  0
   -4.0207   -6.6711    1.2113 C   0  0  0  0  0  0  0  0  0  0  0  0
   -4.2924   -7.8484    0.3106 C   0  0  1  0  0  0  0  0  0  0  0  0
   -3.9909   -9.0340    0.9893 F   0  0  0  0  0  0  0  0  0  0  0  0
   -5.6421   -7.8522   -0.0576 F   0  0  0  0  0  0  0  0  0  0  0  0
   -3.4965   -7.7520   -0.8358 F   0  0  0  0  0  0  0  0  0  0  0  0
   -5.0206   -6.1843    2.0321 C   0  0  0  0  0  0  0  0  0  0  0  0
   -4.7728   -5.1043    2.8583 C   0  0  0  0  0  0  0  0  0  0  0  0
   -3.5205   -4.5141    2.8681 C   0  0  0  0  0  0  0  0  0  0  0  0
   -3.2770   -3.4584    3.6752 F   0  0  0  0  0  0  0  0  0  0  0  0
   -1.0232   -2.2939    0.0610 C   0  0  1  0  0  0  0  0  0  0  0  0
    0.8172    1.8399    0.0041 H   0  0  0  0  0  0  0  0  0  0  0  0
   -0.8627    1.8171    0.0160 H   0  0  0  0  0  0  0  0  0  0  0  0
   -1.9449    0.5141    1.6594 H   0  0  0  0  0  0  0  0  0  0  0  0
   -3.1365   -0.7470    1.1965 H   0  0  0  0  0  0  0  0  0  0  0  0
   -0.4766   -1.0886    2.6872 H   0  0  0  0  0  0  0  0  0  0  0  0
   -2.0794   -1.7649    3.1099 H   0  0  0  0  0  0  0  0  0  0  0  0
   -1.9908   -6.4600    0.5743 H   0  0  0  0  0  0  0  0  0  0  0  0
   -5.9961   -6.6479    2.0278 H   0  0  0  0  0  0  0  0  0  0  0  0
   -5.5544   -4.7237    3.4991 H   0  0  0  0  0  0  0  0  0  0  0  0
   -1.7709   -2.8255   -0.5276 H   0  0  0  0  0  0  0  0  0  0  0  0
   -0.0257   -2.5081   -0.3225 H   0  0  0  0  0  0  0  0  0  0  0  0
  1  2  1  0
  1 24  1  0
  1 25  1  0
  2  3  2  0
  2  4  1  0
  4  5  1  6
  4 23  1  0
  4  6  1  0
  6  7  1  0
  6 26  1  1
  6 27  1  0
  7  8  1  0
  7 28  1  1
  7 29  1  0
  9  8  1  6
  8 23  1  0
  9 10  2  0
  9 11  2  0
  9 12  1  0
 12 21  2  0
 12 13  1  0
 13 14  2  0
 13 30  1  0
 14 15  1  0
 14 19  1  0
 15 16  1  1
 15 17  1  0
 15 18  1  0
 19 20  2  0
 19 31  1  0
 20 21  1  0
 20 32  1  0
 21 22  1  0
 23 33  1  6
 23 34  1  0
M  END
$$$$
