ZINC000012648724
     RDKit          3D

 57 59  0  0  1  0  0  0  0  0999 V2000
   -0.0187    1.5258    0.0104 C   0  0  1  0  0  0  0  0  0  0  0  0
    0.0021   -0.0041    0.0020 C   0  0  2  0  0  0  0  0  0  0  0  0
    0.5122   -0.3561   -0.8946 H   0  0  0  0  0  0  0  0  0  0  0  0
   -1.4334   -0.5345    0.0145 C   0  0  1  0  0  0  0  0  0  0  0  0
   -1.4142   -2.0642   -0.0270 C   0  0  2  0  0  0  0  0  0  0  0  0
   -0.8906   -2.3972   -0.9231 H   0  0  0  0  0  0  0  0  0  0  0  0
   -2.8500   -2.5925   -0.0485 C   0  0  1  0  0  0  0  0  0  0  0  0
   -0.6916   -2.5957    1.2148 C   0  0  1  0  0  0  0  0  0  0  0  0
    0.6392   -1.9773    1.2884 N   0  0  0  0  0  0  0  0  0  0  0  0
    1.9987   -2.9138    1.4188 S   0  0  1  0  0  0  0  0  0  0  0  0
    2.9971   -2.0919    2.0077 O   0  0  0  0  0  0  0  0  0  0  0  0
    1.5812   -4.1514    1.9786 O   0  0  0  0  0  0  0  0  0  0  0  0
    2.5472   -3.2678   -0.2178 C   0  0  0  0  0  0  0  0  0  0  0  0
    2.0773   -4.3920   -0.8735 C   0  0  0  0  0  0  0  0  0  0  0  0
    2.5026   -4.6751   -2.1549 C   0  0  0  0  0  0  0  0  0  0  0  0
    3.4092   -3.8241   -2.7901 C   0  0  0  0  0  0  0  0  0  0  0  0
    3.8687   -4.1207   -4.1624 C   0  0  0  0  0  0  0  0  0  0  0  0
    3.4577   -5.1066   -4.7408 O   0  0  0  0  0  0  0  0  0  0  0  0
    4.7434   -3.2976   -4.7724 O   0  0  0  0  0  0  0  0  0  0  0  0
    5.1511   -3.6511   -6.1205 C   0  0  1  0  0  0  0  0  0  0  0  0
    6.1244   -2.6229   -6.6368 C   0  0  0  0  0  0  0  0  0  0  0  0
    6.4430   -1.6848   -5.9377 O   0  0  0  0  0  0  0  0  0  0  0  0
    6.6881   -2.7574   -7.9896 C   0  0  0  0  0  0  0  0  0  0  0  0
    6.3187   -3.8347   -8.8010 C   0  0  0  0  0  0  0  0  0  0  0  0
    6.8514   -3.9537  -10.0674 C   0  0  0  0  0  0  0  0  0  0  0  0
    7.7496   -3.0108  -10.5356 C   0  0  0  0  0  0  0  0  0  0  0  0
    8.1202   -1.9415   -9.7385 C   0  0  0  0  0  0  0  0  0  0  0  0
    9.0991   -0.9204  -10.2582 C   0  0  1  0  0  0  0  0  0  0  0  0
    9.4875   -1.2657  -11.5571 F   0  0  0  0  0  0  0  0  0  0  0  0
    8.4939    0.3409  -10.2722 F   0  0  0  0  0  0  0  0  0  0  0  0
   10.2246   -0.8884   -9.4279 F   0  0  0  0  0  0  0  0  0  0  0  0
    7.5917   -1.8051   -8.4724 C   0  0  0  0  0  0  0  0  0  0  0  0
    3.8792   -2.6914   -2.1226 C   0  0  0  0  0  0  0  0  0  0  0  0
    3.4414   -2.4172   -0.8435 C   0  0  0  0  0  0  0  0  0  0  0  0
    0.7415   -0.5122    1.2437 C   0  0  1  0  0  0  0  0  0  0  0  0
    1.0039    1.9031    0.0027 H   0  0  0  0  0  0  0  0  0  0  0  0
   -0.5459    1.8868   -0.8726 H   0  0  0  0  0  0  0  0  0  0  0  0
   -0.5289    1.8773    0.9072 H   0  0  0  0  0  0  0  0  0  0  0  0
   -1.9355   -0.2021    0.9231 H   0  0  0  0  0  0  0  0  0  0  0  0
   -1.9686   -0.1542   -0.8556 H   0  0  0  0  0  0  0  0  0  0  0  0
   -3.3641   -2.2117   -0.9309 H   0  0  0  0  0  0  0  0  0  0  0  0
   -2.8358   -3.6820   -0.0780 H   0  0  0  0  0  0  0  0  0  0  0  0
   -3.3728   -2.2602    0.8483 H   0  0  0  0  0  0  0  0  0  0  0  0
   -1.2630   -2.3406    2.1072 H   0  0  0  0  0  0  0  0  0  0  0  0
   -0.5879   -3.6783    1.1418 H   0  0  0  0  0  0  0  0  0  0  0  0
    1.3764   -5.0495   -0.3809 H   0  0  0  0  0  0  0  0  0  0  0  0
    2.1353   -5.5531   -2.6655 H   0  0  0  0  0  0  0  0  0  0  0  0
    5.6288   -4.6308   -6.1105 H   0  0  0  0  0  0  0  0  0  0  0  0
    4.2755   -3.6804   -6.7689 H   0  0  0  0  0  0  0  0  0  0  0  0
    5.6184   -4.5717   -8.4367 H   0  0  0  0  0  0  0  0  0  0  0  0
    6.5672   -4.7852  -10.6953 H   0  0  0  0  0  0  0  0  0  0  0  0
    8.1639   -3.1099  -11.5281 H   0  0  0  0  0  0  0  0  0  0  0  0
    7.8815   -0.9702   -7.8518 H   0  0  0  0  0  0  0  0  0  0  0  0
    4.5806   -2.0291   -2.6082 H   0  0  0  0  0  0  0  0  0  0  0  0
    3.8041   -1.5415   -0.3260 H   0  0  0  0  0  0  0  0  0  0  0  0
    1.7904   -0.2207    1.1903 H   0  0  0  0  0  0  0  0  0  0  0  0
    0.2870   -0.0867    2.1384 H   0  0  0  0  0  0  0  0  0  0  0  0
  1  2  1  0
  1 36  1  6
  1 37  1  0
  1 38  1  0
  2  3  1  6
  2 35  1  0
  2  4  1  0
  4  5  1  0
  4 39  1  1
  4 40  1  0
  5  6  1  6
  5  7  1  0
  5  8  1  0
  7 41  1  6
  7 42  1  0
  7 43  1  0
  8  9  1  0
  8 44  1  1
  8 45  1  0
 10  9  1  6
  9 35  1  0
 10 11  2  0
 10 12  2  0
 10 13  1  0
 13 34  2  0
 13 14  1  0
 14 15  2  0
 14 46  1  0
 15 16  1  0
 15 47  1  0
 16 17  1  0
 16 33  2  0
 17 18  2  0
 17 19  1  0
 19 20  1  0
 20 21  1  0
 20 48  1  1
 20 49  1  0
 21 22  2  0
 21 23  1  0
 23 32  2  0
 23 24  1  0
 24 25  2  0
 24 50  1  0
 25 26  1  0
 25 51  1  0
 26 27  2  0
 26 52  1  0
 27 28  1  0
 27 32  1  0
 28 29  1  6
 28 30  1  0
 28 31  1  0
 32 53  1  0
 33 34  1  0
 33 54  1  0
 34 55  1  0
 35 56  1  6
 35 57  1  0
M  END
$$$$
