ZINC000072008204
     RDKit          3D

 37 37  0  0  1  0  0  0  0  0999 V2000
   -0.0307    1.5316    0.0299 C   0  0  1  0  0  0  0  0  0  0  0  0
   -0.0037    0.0019    0.0137 C   0  0  1  0  0  0  0  0  0  0  0  0
    0.7347   -0.5083    1.2527 C   0  0  1  0  0  0  0  0  0  0  0  0
   -1.7030   -0.6329    0.0183 S   0  0  1  0  0  0  0  0  0  0  0  0
   -1.6588   -2.0459   -0.1262 O   0  0  0  0  0  0  0  0  0  0  0  0
   -2.3936   -0.0700    1.1253 O   0  0  0  0  0  0  0  0  0  0  0  0
   -2.3748    0.0834   -1.5069 C   0  0  1  0  0  0  0  0  0  0  0  0
   -2.3243    1.1707   -1.4506 H   0  0  0  0  0  0  0  0  0  0  0  0
   -1.5551   -0.4040   -2.7034 C   0  0  1  0  0  0  0  0  0  0  0  0
   -3.8100   -0.3450   -1.6733 C   0  0  0  0  0  0  0  0  0  0  0  0
   -4.2246   -1.3194   -1.0820 O   0  0  0  0  0  0  0  0  0  0  0  0
   -4.6330    0.3548   -2.4792 N   0  0  0  0  0  0  0  0  0  0  0  0
   -5.9370   -0.0971   -2.7101 C   0  0  0  0  0  0  0  0  0  0  0  0
   -6.5253    0.0821   -3.9552 C   0  0  0  0  0  0  0  0  0  0  0  0
   -7.8126   -0.3650   -4.1798 C   0  0  0  0  0  0  0  0  0  0  0  0
   -8.5157   -0.9902   -3.1664 C   0  0  0  0  0  0  0  0  0  0  0  0
   -9.9203   -1.4764   -3.4149 C   0  0  1  0  0  0  0  0  0  0  0  0
   -9.8816   -2.7941   -3.8834 F   0  0  0  0  0  0  0  0  0  0  0  0
  -10.6488   -1.4270   -2.2215 F   0  0  0  0  0  0  0  0  0  0  0  0
  -10.5344   -0.6596   -4.3703 F   0  0  0  0  0  0  0  0  0  0  0  0
   -7.9325   -1.1706   -1.9256 C   0  0  0  0  0  0  0  0  0  0  0  0
   -6.6435   -0.7308   -1.6963 C   0  0  0  0  0  0  0  0  0  0  0  0
    0.9903    1.9131    0.0271 H   0  0  0  0  0  0  0  0  0  0  0  0
   -0.5568    1.8951   -0.8528 H   0  0  0  0  0  0  0  0  0  0  0  0
   -0.5449    1.8764    0.9270 H   0  0  0  0  0  0  0  0  0  0  0  0
    0.5105   -0.3429   -0.8835 H   0  0  0  0  0  0  0  0  0  0  0  0
    0.2205   -0.1635    2.1498 H   0  0  0  0  0  0  0  0  0  0  0  0
    0.7540   -1.5981    1.2411 H   0  0  0  0  0  0  0  0  0  0  0  0
    1.7558   -0.1268    1.2499 H   0  0  0  0  0  0  0  0  0  0  0  0
   -0.5170   -0.0942   -2.5830 H   0  0  0  0  0  0  0  0  0  0  0  0
   -1.6056   -1.4914   -2.7597 H   0  0  0  0  0  0  0  0  0  0  0  0
   -1.9588    0.0264   -3.6198 H   0  0  0  0  0  0  0  0  0  0  0  0
   -4.3213    1.1718   -2.8992 H   0  0  0  0  0  0  0  0  0  0  0  0
   -5.9770    0.5709   -4.7468 H   0  0  0  0  0  0  0  0  0  0  0  0
   -8.2707   -0.2260   -5.1479 H   0  0  0  0  0  0  0  0  0  0  0  0
   -8.4842   -1.6592   -1.1362 H   0  0  0  0  0  0  0  0  0  0  0  0
   -6.1886   -0.8720   -0.7270 H   0  0  0  0  0  0  0  0  0  0  0  0
  1  2  1  0
  1 23  1  1
  1 24  1  0
  1 25  1  0
  2  3  1  0
  2  4  1  0
  2 26  1  6
  3 27  1  1
  3 28  1  0
  3 29  1  0
  4  5  2  0
  4  6  2  0
  4  7  1  6
  7  8  1  1
  7  9  1  0
  7 10  1  0
  9 30  1  1
  9 31  1  0
  9 32  1  0
 10 11  2  0
 10 12  1  0
 12 13  1  0
 12 33  1  0
 13 22  2  0
 13 14  1  0
 14 15  2  0
 14 34  1  0
 15 16  1  0
 15 35  1  0
 16 17  1  0
 16 21  2  0
 17 18  1  6
 17 19  1  0
 17 20  1  0
 21 22  1  0
 21 36  1  0
 22 37  1  0
M  END
$$$$
