ZINC000015386094
     RDKit          3D

 47 48  0  0  0  0  0  0  0  0999 V2000
   -0.0189    1.5036    0.0070 C   0  0  1  0  0  0  0  0  0  0  0  0
    0.0020   -0.0032   -0.0052 C   0  0  0  0  0  0  0  0  0  0  0  0
    1.3173   -0.7384   -0.0273 C   0  0  1  0  0  0  0  0  0  0  0  0
   -1.1403   -0.6842    0.0037 C   0  0  0  0  0  0  0  0  0  0  0  0
   -2.4242    0.0334    0.0254 C   0  0  0  0  0  0  0  0  0  0  0  0
   -2.4420    1.2451    0.1284 O   0  0  0  0  0  0  0  0  0  0  0  0
   -3.5809   -0.6518   -0.0690 N   0  0  0  0  0  0  0  0  0  0  0  0
   -3.5815   -2.1215   -0.0723 C   0  0  1  0  0  0  0  0  0  0  0  0
   -4.5030   -2.6137    1.0506 C   0  0  1  0  0  0  0  0  0  0  0  0
   -5.7864   -1.9047    0.9497 N   0  0  0  0  0  0  0  0  0  0  0  0
   -7.2077   -2.7467    0.8348 S   0  0  1  0  0  0  0  0  0  0  0  0
   -8.1424   -1.8736    0.2158 O   0  0  0  0  0  0  0  0  0  0  0  0
   -6.8752   -4.0258    0.3128 O   0  0  0  0  0  0  0  0  0  0  0  0
   -7.7891   -3.0150    2.4764 C   0  0  0  0  0  0  0  0  0  0  0  0
   -7.4056   -4.1483    3.1688 C   0  0  0  0  0  0  0  0  0  0  0  0
   -7.8617   -4.3588    4.4566 C   0  0  0  0  0  0  0  0  0  0  0  0
   -7.4441   -5.5946    5.2113 C   0  0  1  0  0  0  0  0  0  0  0  0
   -6.2675   -5.3321    5.9212 F   0  0  0  0  0  0  0  0  0  0  0  0
   -8.4565   -5.9595    6.1052 F   0  0  0  0  0  0  0  0  0  0  0  0
   -7.2207   -6.6393    4.3081 F   0  0  0  0  0  0  0  0  0  0  0  0
   -8.7005   -3.4356    5.0524 C   0  0  0  0  0  0  0  0  0  0  0  0
   -9.0836   -2.3020    4.3601 C   0  0  0  0  0  0  0  0  0  0  0  0
   -9.9984   -1.2957    5.0094 C   0  0  1  0  0  0  0  0  0  0  0  0
  -10.3217   -1.7248    6.3011 F   0  0  0  0  0  0  0  0  0  0  0  0
   -9.3543   -0.0557    5.0774 F   0  0  0  0  0  0  0  0  0  0  0  0
  -11.1684   -1.1726    4.2524 F   0  0  0  0  0  0  0  0  0  0  0  0
   -8.6240   -2.0894    3.0738 C   0  0  0  0  0  0  0  0  0  0  0  0
   -5.7858   -0.4350    0.9529 C   0  0  1  0  0  0  0  0  0  0  0  0
   -4.8647    0.0572   -0.1643 C   0  0  1  0  0  0  0  0  0  0  0  0
    1.0036    1.8812   -0.0028 H   0  0  0  0  0  0  0  0  0  0  0  0
   -0.5488    1.8667   -0.8737 H   0  0  0  0  0  0  0  0  0  0  0  0
   -0.5266    1.8527    0.9061 H   0  0  0  0  0  0  0  0  0  0  0  0
    1.6473   -0.9237    0.9949 H   0  0  0  0  0  0  0  0  0  0  0  0
    1.1938   -1.6885   -0.5472 H   0  0  0  0  0  0  0  0  0  0  0  0
    2.0623   -0.1347   -0.5458 H   0  0  0  0  0  0  0  0  0  0  0  0
   -1.1254   -1.7640   -0.0049 H   0  0  0  0  0  0  0  0  0  0  0  0
   -3.9482   -2.4850   -1.0322 H   0  0  0  0  0  0  0  0  0  0  0  0
   -2.5693   -2.4881    0.0981 H   0  0  0  0  0  0  0  0  0  0  0  0
   -4.6681   -3.6859    0.9448 H   0  0  0  0  0  0  0  0  0  0  0  0
   -4.0450   -2.4053    2.0175 H   0  0  0  0  0  0  0  0  0  0  0  0
   -6.7500   -4.8695    2.7035 H   0  0  0  0  0  0  0  0  0  0  0  0
   -9.0569   -3.6000    6.0585 H   0  0  0  0  0  0  0  0  0  0  0  0
   -8.9233   -1.2038    2.5330 H   0  0  0  0  0  0  0  0  0  0  0  0
   -6.7980   -0.0684    0.7826 H   0  0  0  0  0  0  0  0  0  0  0  0
   -5.4191   -0.0715    1.9129 H   0  0  0  0  0  0  0  0  0  0  0  0
   -4.7005    1.1294   -0.0573 H   0  0  0  0  0  0  0  0  0  0  0  0
   -5.3205   -0.1508   -1.1324 H   0  0  0  0  0  0  0  0  0  0  0  0
  1  2  1  0
  1 30  1  6
  1 31  1  0
  1 32  1  0
  2  3  1  0
  2  4  2  0
  3 33  1  1
  3 34  1  0
  3 35  1  0
  4  5  1  0
  4 36  1  0
  5  6  2  0
  5  7  1  0
  7 29  1  0
  7  8  1  0
  8  9  1  0
  8 37  1  6
  8 38  1  0
  9 10  1  0
  9 39  1  6
  9 40  1  0
 11 10  1  1
 10 28  1  0
 11 12  2  0
 11 13  2  0
 11 14  1  0
 14 27  2  0
 14 15  1  0
 15 16  2  0
 15 41  1  0
 16 17  1  0
 16 21  1  0
 17 18  1  1
 17 19  1  0
 17 20  1  0
 21 22  2  0
 21 42  1  0
 22 23  1  0
 22 27  1  0
 23 24  1  1
 23 25  1  0
 23 26  1  0
 27 43  1  0
 28 29  1  0
 28 44  1  6
 28 45  1  0
 29 46  1  1
 29 47  1  0
M  END
$$$$
