ZINC000408600757
     RDKit          3D

 47 48  0  0  0  0  0  0  0  0999 V2000
    0.0106    1.5808    0.0419 C   0  0  1  0  0  0  0  0  0  0  0  0
    0.0368    0.0511    0.0439 C   0  0  1  0  0  0  0  0  0  0  0  0
    0.7223   -0.4272   -1.1592 N   0  0  0  0  0  0  0  0  0  0  0  0
    2.1827   -0.5421   -1.1734 C   0  0  1  0  0  0  0  0  0  0  0  0
    2.5939   -1.8914   -0.5807 C   0  0  1  0  0  0  0  0  0  0  0  0
   -0.1536   -0.8379   -2.5033 S   0  0  1  0  0  0  0  0  0  0  0  0
    0.6526   -1.7413   -3.2470 O   0  0  0  0  0  0  0  0  0  0  0  0
   -1.4612   -1.1571   -2.0479 O   0  0  0  0  0  0  0  0  0  0  0  0
   -0.3104    0.6151   -3.4877 C   0  0  0  0  0  0  0  0  0  0  0  0
   -1.3820    1.4672   -3.2946 C   0  0  0  0  0  0  0  0  0  0  0  0
   -1.5073    2.6069   -4.0651 C   0  0  0  0  0  0  0  0  0  0  0  0
   -0.5564    2.8965   -5.0329 C   0  0  0  0  0  0  0  0  0  0  0  0
   -0.6771    4.0173   -5.7919 O   0  0  0  0  0  0  0  0  0  0  0  0
    0.3389    4.2517   -6.7689 C   0  0  1  0  0  0  0  0  0  0  0  0
    0.0397    5.5306   -7.5079 C   0  0  0  0  0  0  0  0  0  0  0  0
   -0.9466    6.1776   -7.2257 O   0  0  0  0  0  0  0  0  0  0  0  0
    0.8681    5.9553   -8.4825 N   0  0  0  0  0  0  0  0  0  0  0  0
    0.5421    7.0915   -9.2323 C   0  0  0  0  0  0  0  0  0  0  0  0
   -0.1236    8.1524   -8.6339 C   0  0  0  0  0  0  0  0  0  0  0  0
   -0.4436    9.2727   -9.3764 C   0  0  0  0  0  0  0  0  0  0  0  0
   -0.1017    9.3385  -10.7143 C   0  0  0  0  0  0  0  0  0  0  0  0
    0.5613    8.2835  -11.3145 C   0  0  0  0  0  0  0  0  0  0  0  0
    0.8894    7.1624  -10.5763 C   0  0  0  0  0  0  0  0  0  0  0  0
    1.7221    5.8386  -11.3299 Cl  0  0  0  0  0  0  0  0  0  0  0  0
    0.5181    2.0401   -5.2244 C   0  0  0  0  0  0  0  0  0  0  0  0
    0.6414    0.9041   -4.4480 C   0  0  0  0  0  0  0  0  0  0  0  0
    1.0318    1.9617    0.0300 H   0  0  0  0  0  0  0  0  0  0  0  0
   -0.5193    1.9340   -0.8428 H   0  0  0  0  0  0  0  0  0  0  0  0
   -0.4995    1.9367    0.9371 H   0  0  0  0  0  0  0  0  0  0  0  0
    0.5667   -0.3021    0.9286 H   0  0  0  0  0  0  0  0  0  0  0  0
   -0.9844   -0.3298    0.0559 H   0  0  0  0  0  0  0  0  0  0  0  0
    2.5429   -0.4711   -2.1997 H   0  0  0  0  0  0  0  0  0  0  0  0
    2.6163    0.2628   -0.5798 H   0  0  0  0  0  0  0  0  0  0  0  0
    3.6805   -1.9768   -0.5912 H   0  0  0  0  0  0  0  0  0  0  0  0
    2.2338   -1.9623    0.4457 H   0  0  0  0  0  0  0  0  0  0  0  0
    2.1604   -2.6962   -1.1743 H   0  0  0  0  0  0  0  0  0  0  0  0
   -2.1220    1.2413   -2.5410 H   0  0  0  0  0  0  0  0  0  0  0  0
   -2.3449    3.2719   -3.9144 H   0  0  0  0  0  0  0  0  0  0  0  0
    1.3064    4.3360   -6.2740 H   0  0  0  0  0  0  0  0  0  0  0  0
    0.3629    3.4214   -7.4747 H   0  0  0  0  0  0  0  0  0  0  0  0
    1.6902    5.4737   -8.6644 H   0  0  0  0  0  0  0  0  0  0  0  0
   -0.3916    8.1020   -7.5888 H   0  0  0  0  0  0  0  0  0  0  0  0
   -0.9619   10.0981   -8.9110 H   0  0  0  0  0  0  0  0  0  0  0  0
   -0.3532   10.2156  -11.2921 H   0  0  0  0  0  0  0  0  0  0  0  0
    0.8267    8.3379  -12.3600 H   0  0  0  0  0  0  0  0  0  0  0  0
    1.2595    2.2631   -5.9774 H   0  0  0  0  0  0  0  0  0  0  0  0
    1.4779    0.2373   -4.5964 H   0  0  0  0  0  0  0  0  0  0  0  0
  1  2  1  0
  1 27  1  6
  1 28  1  0
  1 29  1  0
  2  3  1  0
  2 30  1  1
  2 31  1  0
  3  4  1  0
  6  3  1  1
  4  5  1  0
  4 32  1  6
  4 33  1  0
  5 34  1  1
  5 35  1  0
  5 36  1  0
  6  7  2  0
  6  8  2  0
  6  9  1  0
  9 26  2  0
  9 10  1  0
 10 11  2  0
 10 37  1  0
 11 12  1  0
 11 38  1  0
 12 13  1  0
 12 25  2  0
 13 14  1  0
 14 15  1  0
 14 39  1  1
 14 40  1  0
 15 16  2  0
 15 17  1  0
 17 18  1  0
 17 41  1  0
 18 23  2  0
 18 19  1  0
 19 20  2  0
 19 42  1  0
 20 21  1  0
 20 43  1  0
 21 22  2  0
 21 44  1  0
 22 23  1  0
 22 45  1  0
 23 24  1  0
 25 26  1  0
 25 46  1  0
 26 47  1  0
M  END
$$$$
