ZINC000009217099
     RDKit          3D

 47 49  0  0  1  0  0  0  0  0999 V2000
   -2.2207  -11.2365    1.4071 C   0  0  1  0  0  0  0  0  0  0  0  0
   -1.8073   -9.7877    1.3765 C   0  0  0  0  0  0  0  0  0  0  0  0
   -1.0734   -9.2561    2.4204 C   0  0  0  0  0  0  0  0  0  0  0  0
   -0.6942   -7.9271    2.3924 C   0  0  0  0  0  0  0  0  0  0  0  0
   -1.0485   -7.1297    1.3202 C   0  0  0  0  0  0  0  0  0  0  0  0
   -0.5657   -5.4355    1.2847 S   0  0  1  0  0  0  0  0  0  0  0  0
   -1.4105   -4.7973    0.3369 O   0  0  0  0  0  0  0  0  0  0  0  0
   -0.4635   -5.0190    2.6394 O   0  0  0  0  0  0  0  0  0  0  0  0
    0.9668   -5.3756    0.6601 N   0  0  0  0  0  0  0  0  0  0  0  0
    1.3099   -5.3465   -0.7734 C   0  0  1  0  0  0  0  0  0  0  0  0
    2.7092   -4.6845   -0.8329 C   0  0  1  0  0  0  0  0  0  0  0  0
    3.3812   -5.2617    0.4409 C   0  0  1  0  0  0  0  0  0  0  0  0
    2.2104   -5.3361    1.4434 C   0  0  1  0  0  0  0  0  0  0  0  0
    2.2934   -6.2422    2.0437 H   0  0  0  0  0  0  0  0  0  0  0  0
    2.2252   -4.1247    2.3396 C   0  0  0  0  0  0  0  0  0  0  0  0
    1.5029   -3.1813    2.0960 O   0  0  0  0  0  0  0  0  0  0  0  0
    3.0410   -4.0895    3.4118 N   0  0  0  0  0  0  0  0  0  0  0  0
    3.1194   -2.9318    4.1937 C   0  0  0  0  0  0  0  0  0  0  0  0
    3.3553   -3.0287    5.5588 C   0  0  0  0  0  0  0  0  0  0  0  0
    3.4320   -1.8840    6.3278 C   0  0  0  0  0  0  0  0  0  0  0  0
    3.2737   -0.6425    5.7399 C   0  0  0  0  0  0  0  0  0  0  0  0
    3.3575    0.6044    6.5821 C   0  0  1  0  0  0  0  0  0  0  0  0
    4.6825    1.0517    6.6226 F   0  0  0  0  0  0  0  0  0  0  0  0
    2.5464    1.5989    6.0250 F   0  0  0  0  0  0  0  0  0  0  0  0
    2.9214    0.3202    7.8807 F   0  0  0  0  0  0  0  0  0  0  0  0
    3.0391   -0.5426    4.3808 C   0  0  0  0  0  0  0  0  0  0  0  0
    2.9670   -1.6831    3.6053 C   0  0  0  0  0  0  0  0  0  0  0  0
   -1.7813   -7.6616    0.2756 C   0  0  0  0  0  0  0  0  0  0  0  0
   -2.1572   -8.9916    0.3019 C   0  0  0  0  0  0  0  0  0  0  0  0
   -1.4474  -11.8450    0.9383 H   0  0  0  0  0  0  0  0  0  0  0  0
   -2.3559  -11.5540    2.4411 H   0  0  0  0  0  0  0  0  0  0  0  0
   -3.1579  -11.3585    0.8641 H   0  0  0  0  0  0  0  0  0  0  0  0
   -0.7966   -9.8791    3.2581 H   0  0  0  0  0  0  0  0  0  0  0  0
   -0.1215   -7.5116    3.2083 H   0  0  0  0  0  0  0  0  0  0  0  0
    1.3521   -6.3593   -1.1740 H   0  0  0  0  0  0  0  0  0  0  0  0
    0.5840   -4.7493   -1.3251 H   0  0  0  0  0  0  0  0  0  0  0  0
    3.2474   -4.9887   -1.7306 H   0  0  0  0  0  0  0  0  0  0  0  0
    2.6306   -3.5989   -0.7754 H   0  0  0  0  0  0  0  0  0  0  0  0
    3.7902   -6.2530    0.2457 H   0  0  0  0  0  0  0  0  0  0  0  0
    4.1567   -4.5885    0.8065 H   0  0  0  0  0  0  0  0  0  0  0  0
    3.5739   -4.8669    3.6414 H   0  0  0  0  0  0  0  0  0  0  0  0
    3.4784   -3.9981    6.0186 H   0  0  0  0  0  0  0  0  0  0  0  0
    3.6155   -1.9587    7.3895 H   0  0  0  0  0  0  0  0  0  0  0  0
    2.9159    0.4286    3.9246 H   0  0  0  0  0  0  0  0  0  0  0  0
    2.7837   -1.6045    2.5439 H   0  0  0  0  0  0  0  0  0  0  0  0
   -2.0578   -7.0388   -0.5622 H   0  0  0  0  0  0  0  0  0  0  0  0
   -2.7296   -9.4072   -0.5142 H   0  0  0  0  0  0  0  0  0  0  0  0
  1  2  1  0
  1 30  1  6
  1 31  1  0
  1 32  1  0
  2 29  2  0
  2  3  1  0
  3  4  2  0
  3 33  1  0
  4  5  1  0
  4 34  1  0
  5  6  1  0
  5 28  2  0
  6  7  2  0
  6  8  2  0
  6  9  1  6
  9 13  1  0
  9 10  1  0
 10 11  1  0
 10 35  1  6
 10 36  1  0
 11 12  1  0
 11 37  1  6
 11 38  1  0
 12 13  1  0
 12 39  1  6
 12 40  1  0
 13 14  1  1
 13 15  1  0
 15 16  2  0
 15 17  1  0
 17 18  1  0
 17 41  1  0
 18 27  2  0
 18 19  1  0
 19 20  2  0
 19 42  1  0
 20 21  1  0
 20 43  1  0
 21 22  1  0
 21 26  2  0
 22 23  1  1
 22 24  1  0
 22 25  1  0
 26 27  1  0
 26 44  1  0
 27 45  1  0
 28 29  1  0
 28 46  1  0
 29 47  1  0
M  END
$$$$
