ZINC000046120921
     RDKit          3D

 44 45  0  0  1  0  0  0  0  0999 V2000
   -0.0204    1.6518    0.0111 N   0  0  0  0  0  0  0  0  0  0  0  0
    0.0021   -0.0041    0.0020 S   0  0  1  0  0  0  0  0  0  0  0  0
    1.3604   -0.3860   -0.1664 O   0  0  0  0  0  0  0  0  0  0  0  0
   -0.7920   -0.4222    1.1038 O   0  0  0  0  0  0  0  0  0  0  0  0
   -0.8462   -0.5292   -1.4503 C   0  0  0  0  0  0  0  0  0  0  0  0
   -2.2107   -0.7471   -1.4131 C   0  0  0  0  0  0  0  0  0  0  0  0
   -2.8762   -1.1591   -2.5525 C   0  0  0  0  0  0  0  0  0  0  0  0
   -2.1772   -1.3528   -3.7293 C   0  0  0  0  0  0  0  0  0  0  0  0
   -2.9026   -1.8024   -4.9713 C   0  0  1  0  0  0  0  0  0  0  0  0
   -3.3788   -0.5778   -5.7553 C   0  0  1  0  0  0  0  0  0  0  0  0
   -4.0840   -1.0149   -6.9627 N   0  0  0  0  0  0  0  0  0  0  0  0
   -4.5951   -0.1020   -7.8124 C   0  0  0  0  0  0  0  0  0  0  0  0
   -4.4712    1.0814   -7.5773 O   0  0  0  0  0  0  0  0  0  0  0  0
   -5.3205   -0.5516   -9.0544 C   0  0  1  0  0  0  0  0  0  0  0  0
   -5.7967    0.6729   -9.8384 C   0  0  1  0  0  0  0  0  0  0  0  0
   -6.5332    0.2165  -11.0994 C   0  0  2  0  0  0  0  0  0  0  0  0
   -5.8978   -0.4562  -11.6755 H   0  0  0  0  0  0  0  0  0  0  0  0
   -6.9117    1.4426  -11.9576 C   0  0  1  0  0  0  0  0  0  0  0  0
   -8.3262    1.0605  -12.4726 C   0  0  1  0  0  0  0  0  0  0  0  0
   -8.8767    0.2687  -11.2598 C   0  0  1  0  0  0  0  0  0  0  0  0
   -7.7471   -0.4525  -10.7378 O   0  0  0  0  0  0  0  0  0  0  0  0
   -0.8129   -1.1336   -3.7669 C   0  0  0  0  0  0  0  0  0  0  0  0
   -0.1480   -0.7179   -2.6284 C   0  0  0  0  0  0  0  0  0  0  0  0
    0.8130    2.1481    0.0058 H   0  0  0  0  0  0  0  0  0  0  0  0
   -0.8669    2.1253    0.0177 H   0  0  0  0  0  0  0  0  0  0  0  0
   -2.7569   -0.5958   -0.4937 H   0  0  0  0  0  0  0  0  0  0  0  0
   -3.9422   -1.3300   -2.5233 H   0  0  0  0  0  0  0  0  0  0  0  0
   -2.2283   -2.3919   -5.5926 H   0  0  0  0  0  0  0  0  0  0  0  0
   -3.7623   -2.4105   -4.6899 H   0  0  0  0  0  0  0  0  0  0  0  0
   -4.0531    0.0117   -5.1340 H   0  0  0  0  0  0  0  0  0  0  0  0
   -2.5191    0.0303   -6.0367 H   0  0  0  0  0  0  0  0  0  0  0  0
   -4.1831   -1.9613   -7.1507 H   0  0  0  0  0  0  0  0  0  0  0  0
   -4.6462   -1.1411   -9.6757 H   0  0  0  0  0  0  0  0  0  0  0  0
   -6.1802   -1.1597   -8.7730 H   0  0  0  0  0  0  0  0  0  0  0  0
   -6.4710    1.2624   -9.2171 H   0  0  0  0  0  0  0  0  0  0  0  0
   -4.9370    1.2811  -10.1198 H   0  0  0  0  0  0  0  0  0  0  0  0
   -6.9515    2.3454  -11.3481 H   0  0  0  0  0  0  0  0  0  0  0  0
   -6.2163    1.5644  -12.7881 H   0  0  0  0  0  0  0  0  0  0  0  0
   -8.9268    1.9491  -12.6669 H   0  0  0  0  0  0  0  0  0  0  0  0
   -8.2643    0.4289  -13.3587 H   0  0  0  0  0  0  0  0  0  0  0  0
   -9.2697    0.9532  -10.5080 H   0  0  0  0  0  0  0  0  0  0  0  0
   -9.6521   -0.4262  -11.5821 H   0  0  0  0  0  0  0  0  0  0  0  0
   -0.2668   -1.2845   -4.6863 H   0  0  0  0  0  0  0  0  0  0  0  0
    0.9179   -0.5466   -2.6578 H   0  0  0  0  0  0  0  0  0  0  0  0
  2  1  1  6
  1 24  1  0
  1 25  1  0
  2  3  2  0
  2  4  2  0
  2  5  1  0
  5 23  2  0
  5  6  1  0
  6  7  2  0
  6 26  1  0
  7  8  1  0
  7 27  1  0
  8  9  1  0
  8 22  2  0
  9 10  1  0
  9 28  1  6
  9 29  1  0
 10 11  1  0
 10 30  1  1
 10 31  1  0
 11 12  1  0
 11 32  1  0
 12 13  2  0
 12 14  1  0
 14 15  1  0
 14 33  1  6
 14 34  1  0
 15 16  1  0
 15 35  1  1
 15 36  1  0
 16 17  1  6
 16 21  1  0
 16 18  1  0
 18 19  1  0
 18 37  1  1
 18 38  1  0
 19 20  1  0
 19 39  1  6
 19 40  1  0
 20 21  1  0
 20 41  1  1
 20 42  1  0
 22 23  1  0
 22 43  1  0
 23 44  1  0
M  END
$$$$
