ZINC000408771847
     RDKit          3D

 54 55  0  0  0  0  0  0  0  0999 V2000
    0.9581   -5.8241  -10.0693 C   0  0  1  0  0  0  0  0  0  0  0  0
    1.5514   -4.5301   -9.9441 O   0  0  0  0  0  0  0  0  0  0  0  0
    1.7956   -4.0822   -8.6835 C   0  0  0  0  0  0  0  0  0  0  0  0
    1.4767   -4.8730   -7.5919 C   0  0  0  0  0  0  0  0  0  0  0  0
    1.7261   -4.4162   -6.3107 C   0  0  0  0  0  0  0  0  0  0  0  0
    2.2930   -3.1709   -6.1159 C   0  0  0  0  0  0  0  0  0  0  0  0
    2.6078   -2.5944   -4.4809 S   0  0  1  0  0  0  0  0  0  0  0  0
    2.5186   -1.1771   -4.5311 O   0  0  0  0  0  0  0  0  0  0  0  0
    1.8139   -3.3929   -3.6141 O   0  0  0  0  0  0  0  0  0  0  0  0
    4.1864   -2.9515   -4.1306 N   0  0  0  0  0  0  0  0  0  0  0  0
    4.5423   -4.2800   -3.6261 C   0  0  1  0  0  0  0  0  0  0  0  0
    4.9754   -5.1542   -4.7747 C   0  0  0  0  0  0  0  0  0  0  0  0
    4.9858   -4.7110   -5.9036 O   0  0  0  0  0  0  0  0  0  0  0  0
    5.3513   -6.4283   -4.5475 N   0  0  0  0  0  0  0  0  0  0  0  0
    5.7723   -7.2781   -5.6641 C   0  0  1  0  0  0  0  0  0  0  0  0
    6.6990   -8.3796   -5.1455 C   0  0  1  0  0  0  0  0  0  0  0  0
    4.5413   -7.9119   -6.3151 C   0  0  1  0  0  0  0  0  0  0  0  0
    5.2271   -1.9389   -4.3253 C   0  0  1  0  0  0  0  0  0  0  0  0
    5.4921   -1.2336   -3.0201 C   0  0  0  0  0  0  0  0  0  0  0  0
    4.8523   -0.0415   -2.7364 C   0  0  0  0  0  0  0  0  0  0  0  0
    5.0954    0.6054   -1.5392 C   0  0  0  0  0  0  0  0  0  0  0  0
    5.9779    0.0601   -0.6256 C   0  0  0  0  0  0  0  0  0  0  0  0
    6.6170   -1.1325   -0.9090 C   0  0  0  0  0  0  0  0  0  0  0  0
    6.3706   -1.7816   -2.1043 C   0  0  0  0  0  0  0  0  0  0  0  0
    2.6142   -2.3766   -7.2013 C   0  0  0  0  0  0  0  0  0  0  0  0
    2.3718   -2.8303   -8.4875 C   0  0  0  0  0  0  0  0  0  0  0  0
    2.6871   -2.0504   -9.5560 O   0  0  0  0  0  0  0  0  0  0  0  0
    3.2659   -0.7736   -9.2789 C   0  0  1  0  0  0  0  0  0  0  0  0
    1.6118   -6.5689   -9.6153 H   0  0  0  0  0  0  0  0  0  0  0  0
   -0.0074   -5.8316   -9.5636 H   0  0  0  0  0  0  0  0  0  0  0  0
    0.8176   -6.0589  -11.1244 H   0  0  0  0  0  0  0  0  0  0  0  0
    1.0329   -5.8462   -7.7414 H   0  0  0  0  0  0  0  0  0  0  0  0
    1.4769   -5.0338   -5.4605 H   0  0  0  0  0  0  0  0  0  0  0  0
    5.3591   -4.1899   -2.9100 H   0  0  0  0  0  0  0  0  0  0  0  0
    3.6771   -4.7264   -3.1360 H   0  0  0  0  0  0  0  0  0  0  0  0
    5.3430   -6.7828   -3.6446 H   0  0  0  0  0  0  0  0  0  0  0  0
    6.3024   -6.6741   -6.4005 H   0  0  0  0  0  0  0  0  0  0  0  0
    6.1690   -8.9835   -4.4091 H   0  0  0  0  0  0  0  0  0  0  0  0
    7.0123   -9.0118   -5.9764 H   0  0  0  0  0  0  0  0  0  0  0  0
    7.5761   -7.9280   -4.6818 H   0  0  0  0  0  0  0  0  0  0  0  0
    3.8811   -7.1272   -6.6845 H   0  0  0  0  0  0  0  0  0  0  0  0
    4.8545   -8.5441   -7.1459 H   0  0  0  0  0  0  0  0  0  0  0  0
    4.0112   -8.5159   -5.5786 H   0  0  0  0  0  0  0  0  0  0  0  0
    6.1421   -2.4200   -4.6706 H   0  0  0  0  0  0  0  0  0  0  0  0
    4.8946   -1.2145   -5.0688 H   0  0  0  0  0  0  0  0  0  0  0  0
    4.1628    0.3846   -3.4501 H   0  0  0  0  0  0  0  0  0  0  0  0
    4.5961    1.5372   -1.3178 H   0  0  0  0  0  0  0  0  0  0  0  0
    6.1683    0.5659    0.3095 H   0  0  0  0  0  0  0  0  0  0  0  0
    7.3067   -1.5584   -0.1953 H   0  0  0  0  0  0  0  0  0  0  0  0
    6.8699   -2.7133   -2.3257 H   0  0  0  0  0  0  0  0  0  0  0  0
    3.0572   -1.4039   -7.0463 H   0  0  0  0  0  0  0  0  0  0  0  0
    3.4684   -0.2553  -10.2162 H   0  0  0  0  0  0  0  0  0  0  0  0
    2.5731   -0.1830   -8.6795 H   0  0  0  0  0  0  0  0  0  0  0  0
    4.1977   -0.9085   -8.7297 H   0  0  0  0  0  0  0  0  0  0  0  0
  1  2  1  0
  1 29  1  1
  1 30  1  0
  1 31  1  0
  2  3  1  0
  3 26  2  0
  3  4  1  0
  4  5  2  0
  4 32  1  0
  5  6  1  0
  5 33  1  0
  6  7  1  0
  6 25  2  0
  7  8  2  0
  7  9  2  0
  7 10  1  1
 10 11  1  0
 10 18  1  0
 11 12  1  0
 11 34  1  1
 11 35  1  0
 12 13  2  0
 12 14  1  0
 14 15  1  0
 14 36  1  0
 15 16  1  0
 15 17  1  0
 15 37  1  6
 16 38  1  1
 16 39  1  0
 16 40  1  0
 17 41  1  6
 17 42  1  0
 17 43  1  0
 18 19  1  0
 18 44  1  6
 18 45  1  0
 19 24  2  0
 19 20  1  0
 20 21  2  0
 20 46  1  0
 21 22  1  0
 21 47  1  0
 22 23  2  0
 22 48  1  0
 23 24  1  0
 23 49  1  0
 24 50  1  0
 25 26  1  0
 25 51  1  0
 26 27  1  0
 27 28  1  0
 28 52  1  6
 28 53  1  0
 28 54  1  0
M  END
$$$$
