ZINC000006946181
     RDKit          3D

 58 59  0  0  1  0  0  0  0  0999 V2000
   -0.0187    1.5258    0.0104 C   0  0  1  0  0  0  0  0  0  0  0  0
    0.0021   -0.0041    0.0020 C   0  0  1  0  0  0  0  0  0  0  0  0
    0.7421   -0.5109    1.2415 C   0  0  1  0  0  0  0  0  0  0  0  0
    0.7628   -2.0407    1.2331 C   0  0  2  0  0  0  0  0  0  0  0  0
   -0.2567   -2.4175    1.1513 H   0  0  0  0  0  0  0  0  0  0  0  0
    1.3918   -2.5494    2.5318 C   0  0  1  0  0  0  0  0  0  0  0  0
    1.5508   -2.5122    0.0916 N   0  0  0  0  0  0  0  0  0  0  0  0
    1.3205   -3.7345   -0.4273 C   0  0  0  0  0  0  0  0  0  0  0  0
    0.4611   -4.4442    0.0507 O   0  0  0  0  0  0  0  0  0  0  0  0
    2.1311   -4.2195   -1.6016 C   0  0  1  0  0  0  0  0  0  0  0  0
    1.6924   -5.5665   -1.9748 N   0  0  0  0  0  0  0  0  0  0  0  0
    0.5477   -5.7417   -2.8721 C   0  0  1  0  0  0  0  0  0  0  0  0
    1.0199   -5.6520   -4.3247 C   0  0  1  0  0  0  0  0  0  0  0  0
   -0.1577   -5.8323   -5.2477 C   0  0  0  0  0  0  0  0  0  0  0  0
   -0.5113   -7.0975   -5.6779 C   0  0  0  0  0  0  0  0  0  0  0  0
   -1.5914   -7.2628   -6.5246 C   0  0  0  0  0  0  0  0  0  0  0  0
   -2.3182   -6.1630   -6.9407 C   0  0  0  0  0  0  0  0  0  0  0  0
   -1.9651   -4.8979   -6.5098 C   0  0  0  0  0  0  0  0  0  0  0  0
   -0.8875   -4.7330   -5.6597 C   0  0  0  0  0  0  0  0  0  0  0  0
    2.4905   -6.8911   -1.3824 S   0  0  1  0  0  0  0  0  0  0  0  0
    2.3664   -7.9079   -2.3672 O   0  0  0  0  0  0  0  0  0  0  0  0
    3.7432   -6.4230   -0.9020 O   0  0  0  0  0  0  0  0  0  0  0  0
    1.5950   -7.4521    0.0276 C   0  0  0  0  0  0  0  0  0  0  0  0
    1.8994   -6.9567    1.2817 C   0  0  0  0  0  0  0  0  0  0  0  0
    1.1969   -7.3968    2.3879 C   0  0  0  0  0  0  0  0  0  0  0  0
    0.1896   -8.3320    2.2399 C   0  0  0  0  0  0  0  0  0  0  0  0
   -0.5759   -8.8121    3.4458 C   0  0  1  0  0  0  0  0  0  0  0  0
   -0.1157   -8.8263    0.9855 C   0  0  0  0  0  0  0  0  0  0  0  0
    0.5843   -8.3833   -0.1211 C   0  0  0  0  0  0  0  0  0  0  0  0
    1.0039    1.9031    0.0027 H   0  0  0  0  0  0  0  0  0  0  0  0
   -0.5459    1.8868   -0.8726 H   0  0  0  0  0  0  0  0  0  0  0  0
   -0.5289    1.8773    0.9072 H   0  0  0  0  0  0  0  0  0  0  0  0
   -1.0205   -0.3814    0.0098 H   0  0  0  0  0  0  0  0  0  0  0  0
    0.5123   -0.3556   -0.8948 H   0  0  0  0  0  0  0  0  0  0  0  0
    1.7647   -0.1336    1.2338 H   0  0  0  0  0  0  0  0  0  0  0  0
    0.2319   -0.1594    2.1383 H   0  0  0  0  0  0  0  0  0  0  0  0
    0.8055   -2.1987    3.3812 H   0  0  0  0  0  0  0  0  0  0  0  0
    1.4065   -3.6393    2.5258 H   0  0  0  0  0  0  0  0  0  0  0  0
    2.4113   -2.1727    2.6137 H   0  0  0  0  0  0  0  0  0  0  0  0
    2.2382   -1.9445   -0.2908 H   0  0  0  0  0  0  0  0  0  0  0  0
    1.9885   -3.5441   -2.4452 H   0  0  0  0  0  0  0  0  0  0  0  0
    3.1863   -4.2433   -1.3297 H   0  0  0  0  0  0  0  0  0  0  0  0
    0.0948   -6.7176   -2.6970 H   0  0  0  0  0  0  0  0  0  0  0  0
   -0.1875   -4.9602   -2.6801 H   0  0  0  0  0  0  0  0  0  0  0  0
    1.4728   -4.6761   -4.4999 H   0  0  0  0  0  0  0  0  0  0  0  0
    1.7550   -6.4335   -4.5167 H   0  0  0  0  0  0  0  0  0  0  0  0
    0.0565   -7.9567   -5.3527 H   0  0  0  0  0  0  0  0  0  0  0  0
   -1.8673   -8.2513   -6.8612 H   0  0  0  0  0  0  0  0  0  0  0  0
   -3.1616   -6.2922   -7.6028 H   0  0  0  0  0  0  0  0  0  0  0  0
   -2.5326   -4.0386   -6.8353 H   0  0  0  0  0  0  0  0  0  0  0  0
   -0.6117   -3.7446   -5.3231 H   0  0  0  0  0  0  0  0  0  0  0  0
    2.6863   -6.2261    1.3973 H   0  0  0  0  0  0  0  0  0  0  0  0
    1.4351   -7.0103    3.3678 H   0  0  0  0  0  0  0  0  0  0  0  0
   -1.4434   -8.1714    3.6043 H   0  0  0  0  0  0  0  0  0  0  0  0
   -0.9068   -9.8376    3.2815 H   0  0  0  0  0  0  0  0  0  0  0  0
    0.0687   -8.7747    4.3240 H   0  0  0  0  0  0  0  0  0  0  0  0
   -0.9028   -9.5566    0.8698 H   0  0  0  0  0  0  0  0  0  0  0  0
    0.3458   -8.7695   -1.1011 H   0  0  0  0  0  0  0  0  0  0  0  0
  1  2  1  0
  1 30  1  6
  1 31  1  0
  1 32  1  0
  2  3  1  0
  2 33  1  1
  2 34  1  0
  3  4  1  0
  3 35  1  6
  3 36  1  0
  4  5  1  6
  4  6  1  0
  4  7  1  0
  6 37  1  1
  6 38  1  0
  6 39  1  0
  7  8  1  0
  7 40  1  0
  8  9  2  0
  8 10  1  0
 10 11  1  0
 10 41  1  6
 10 42  1  0
 11 12  1  0
 20 11  1  6
 12 13  1  0
 12 43  1  6
 12 44  1  0
 13 14  1  0
 13 45  1  1
 13 46  1  0
 14 19  2  0
 14 15  1  0
 15 16  2  0
 15 47  1  0
 16 17  1  0
 16 48  1  0
 17 18  2  0
 17 49  1  0
 18 19  1  0
 18 50  1  0
 19 51  1  0
 20 21  2  0
 20 22  2  0
 20 23  1  0
 23 29  2  0
 23 24  1  0
 24 25  2  0
 24 52  1  0
 25 26  1  0
 25 53  1  0
 26 27  1  0
 26 28  2  0
 27 54  1  1
 27 55  1  0
 27 56  1  0
 28 29  1  0
 28 57  1  0
 29 58  1  0
M  END
$$$$
