ZINC000014980932
     RDKit          3D

 47 49  0  0  1  0  0  0  0  0999 V2000
   -0.0184    1.5028    0.0103 C   0  0  1  0  0  0  0  0  0  0  0  0
    0.0021   -0.0041    0.0020 C   0  0  0  0  0  0  0  0  0  0  0  0
    0.0084   -0.7781   -1.0446 N   0  0  0  0  0  0  0  0  0  0  0  0
    0.0260   -1.9466   -0.7340 O   0  0  0  0  0  0  0  0  0  0  0  0
    0.0337   -2.1026    0.5973 C   0  0  0  0  0  0  0  0  0  0  0  0
    0.0555   -3.4063    1.3528 C   0  0  1  0  0  0  0  0  0  0  0  0
    0.0244   -0.8570    1.1293 C   0  0  0  0  0  0  0  0  0  0  0  0
    0.0281   -0.4046    2.8322 S   0  0  1  0  0  0  0  0  0  0  0  0
   -0.5285    0.9011    2.9018 O   0  0  0  0  0  0  0  0  0  0  0  0
   -0.5024   -1.5145    3.5435 O   0  0  0  0  0  0  0  0  0  0  0  0
    1.6108   -0.2636    3.2985 N   0  0  0  0  0  0  0  0  0  0  0  0
    2.3413   -1.4232    3.8282 C   0  0  1  0  0  0  0  0  0  0  0  0
    2.9463   -1.0473    5.1845 C   0  0  1  0  0  0  0  0  0  0  0  0
    3.7987    0.2139    5.0265 C   0  0  1  0  0  0  0  0  0  0  0  0
    2.9168    1.3717    4.5534 C   0  0  1  0  0  0  0  0  0  0  0  0
    2.1168    1.5380    5.2748 H   0  0  0  0  0  0  0  0  0  0  0  0
    3.7504    2.6211    4.4299 C   0  0  0  0  0  0  0  0  0  0  0  0
    4.2275    2.9281    3.3583 O   0  0  0  0  0  0  0  0  0  0  0  0
    3.9854    3.4684    5.6100 C   0  0  0  0  0  0  0  0  0  0  0  0
    3.4417    3.1146    6.8489 C   0  0  0  0  0  0  0  0  0  0  0  0
    3.6664    3.9138    7.9499 C   0  0  0  0  0  0  0  0  0  0  0  0
    4.4274    5.0637    7.8310 C   0  0  0  0  0  0  0  0  0  0  0  0
    4.6681    5.9315    9.0394 C   0  0  1  0  0  0  0  0  0  0  0  0
    5.8305    5.5088    9.6930 F   0  0  0  0  0  0  0  0  0  0  0  0
    4.8179    7.2624    8.6354 F   0  0  0  0  0  0  0  0  0  0  0  0
    3.5791    5.8287    9.9116 F   0  0  0  0  0  0  0  0  0  0  0  0
    4.9690    5.4206    6.6084 C   0  0  0  0  0  0  0  0  0  0  0  0
    4.7585    4.6286    5.4994 C   0  0  0  0  0  0  0  0  0  0  0  0
    2.3131    1.0219    3.1847 C   0  0  1  0  0  0  0  0  0  0  0  0
    1.0042    1.8801    0.0026 H   0  0  0  0  0  0  0  0  0  0  0  0
   -0.5455    1.8639   -0.8728 H   0  0  0  0  0  0  0  0  0  0  0  0
   -0.5286    1.8543    0.9071 H   0  0  0  0  0  0  0  0  0  0  0  0
    0.0639   -4.2359    0.6459 H   0  0  0  0  0  0  0  0  0  0  0  0
    0.9490   -3.4505    1.9755 H   0  0  0  0  0  0  0  0  0  0  0  0
   -0.8308   -3.4755    1.9836 H   0  0  0  0  0  0  0  0  0  0  0  0
    1.6554   -2.2610    3.9536 H   0  0  0  0  0  0  0  0  0  0  0  0
    3.1374   -1.7003    3.1372 H   0  0  0  0  0  0  0  0  0  0  0  0
    2.1460   -0.8583    5.9000 H   0  0  0  0  0  0  0  0  0  0  0  0
    3.5703   -1.8656    5.5438 H   0  0  0  0  0  0  0  0  0  0  0  0
    4.2502    0.4695    5.9851 H   0  0  0  0  0  0  0  0  0  0  0  0
    4.5837    0.0320    4.2925 H   0  0  0  0  0  0  0  0  0  0  0  0
    2.8470    2.2180    6.9431 H   0  0  0  0  0  0  0  0  0  0  0  0
    3.2471    3.6420    8.9073 H   0  0  0  0  0  0  0  0  0  0  0  0
    5.5617    6.3195    6.5236 H   0  0  0  0  0  0  0  0  0  0  0  0
    5.1817    4.9084    4.5460 H   0  0  0  0  0  0  0  0  0  0  0  0
    3.1085    0.9455    2.4433 H   0  0  0  0  0  0  0  0  0  0  0  0
    1.6072    1.7975    2.8877 H   0  0  0  0  0  0  0  0  0  0  0  0
  1  2  1  0
  1 30  1  6
  1 31  1  0
  1 32  1  0
  2  7  1  0
  2  3  2  0
  3  4  1  0
  4  5  1  0
  5  6  1  0
  5  7  2  0
  6 33  1  6
  6 34  1  0
  6 35  1  0
  7  8  1  0
  8  9  2  0
  8 10  2  0
  8 11  1  1
 11 29  1  0
 11 12  1  0
 12 13  1  0
 12 36  1  1
 12 37  1  0
 13 14  1  0
 13 38  1  1
 13 39  1  0
 14 15  1  0
 14 40  1  1
 14 41  1  0
 15 16  1  1
 15 17  1  0
 15 29  1  0
 17 18  2  0
 17 19  1  0
 19 28  2  0
 19 20  1  0
 20 21  2  0
 20 42  1  0
 21 22  1  0
 21 43  1  0
 22 23  1  0
 22 27  2  0
 23 24  1  1
 23 25  1  0
 23 26  1  0
 27 28  1  0
 27 44  1  0
 28 45  1  0
 29 46  1  6
 29 47  1  0
M  END
$$$$
