ZINC000058168665
     RDKit          3D

 56 57  0  0  1  0  0  0  0  0999 V2000
   -0.0187    1.5258    0.0104 C   0  0  1  0  0  0  0  0  0  0  0  0
    0.0021   -0.0041    0.0020 C   0  0  1  0  0  0  0  0  0  0  0  0
    0.6878   -0.4765   -1.2033 N   0  0  0  0  0  0  0  0  0  0  0  0
    2.1478   -0.5966   -1.2159 C   0  0  1  0  0  0  0  0  0  0  0  0
    2.5532   -1.9514   -0.6319 C   0  0  1  0  0  0  0  0  0  0  0  0
   -0.1875   -0.8749   -2.5515 S   0  0  1  0  0  0  0  0  0  0  0  0
    0.6166   -1.7761   -3.3001 O   0  0  0  0  0  0  0  0  0  0  0  0
   -1.4970   -1.1925   -2.1004 O   0  0  0  0  0  0  0  0  0  0  0  0
   -0.3375    0.5853   -3.5262 C   0  0  0  0  0  0  0  0  0  0  0  0
   -1.4071    1.4401   -3.3285 C   0  0  0  0  0  0  0  0  0  0  0  0
   -1.5321    2.5892   -4.0894 C   0  0  0  0  0  0  0  0  0  0  0  0
   -0.5896    2.8894   -5.0508 C   0  0  0  0  0  0  0  0  0  0  0  0
    0.4921    2.0310   -5.2553 C   0  0  0  0  0  0  0  0  0  0  0  0
    1.5063    2.3467   -6.2837 C   0  0  0  0  0  0  0  0  0  0  0  0
    2.4472    1.5975   -6.4596 O   0  0  0  0  0  0  0  0  0  0  0  0
    1.3877    3.4653   -7.0262 N   0  0  0  0  0  0  0  0  0  0  0  0
    2.3926    3.7781   -8.0452 C   0  0  2  0  0  0  0  0  0  0  0  0
    2.7480    2.8538   -8.5008 H   0  0  0  0  0  0  0  0  0  0  0  0
    3.5678    4.5107   -7.3946 C   0  0  1  0  0  0  0  0  0  0  0  0
    1.7682    4.6695   -9.1205 C   0  0  1  0  0  0  0  0  0  0  0  0
    0.6747    3.8920   -9.8558 C   0  0  1  0  0  0  0  0  0  0  0  0
    0.0503    4.7835  -10.9311 C   0  0  1  0  0  0  0  0  0  0  0  0
    0.8235    5.1784  -11.5901 H   0  0  0  0  0  0  0  0  0  0  0  0
   -0.9975    3.9867  -11.7484 C   0  0  1  0  0  0  0  0  0  0  0  0
   -1.9065    5.1362  -12.2627 C   0  0  1  0  0  0  0  0  0  0  0  0
   -1.8628    6.1383  -11.0891 C   0  0  1  0  0  0  0  0  0  0  0  0
   -0.6835    5.8584  -10.3233 O   0  0  0  0  0  0  0  0  0  0  0  0
    0.6151    0.8765   -4.4809 C   0  0  0  0  0  0  0  0  0  0  0  0
    1.0039    1.9031    0.0027 H   0  0  0  0  0  0  0  0  0  0  0  0
   -0.5459    1.8868   -0.8726 H   0  0  0  0  0  0  0  0  0  0  0  0
   -0.5289    1.8773    0.9072 H   0  0  0  0  0  0  0  0  0  0  0  0
    0.5293   -0.3651    0.8851 H   0  0  0  0  0  0  0  0  0  0  0  0
   -1.0205   -0.3814    0.0098 H   0  0  0  0  0  0  0  0  0  0  0  0
    2.5098   -0.5199   -2.2412 H   0  0  0  0  0  0  0  0  0  0  0  0
    2.5833    0.2026   -0.6162 H   0  0  0  0  0  0  0  0  0  0  0  0
    2.1912   -2.0280    0.3934 H   0  0  0  0  0  0  0  0  0  0  0  0
    2.1177   -2.7506   -1.2316 H   0  0  0  0  0  0  0  0  0  0  0  0
    3.6395   -2.0407   -0.6413 H   0  0  0  0  0  0  0  0  0  0  0  0
   -2.1479    1.2095   -2.5773 H   0  0  0  0  0  0  0  0  0  0  0  0
   -2.3696    3.2522   -3.9304 H   0  0  0  0  0  0  0  0  0  0  0  0
   -0.6885    3.7863   -5.6442 H   0  0  0  0  0  0  0  0  0  0  0  0
    0.6369    4.0632   -6.8858 H   0  0  0  0  0  0  0  0  0  0  0  0
    3.2124    5.4349   -6.9390 H   0  0  0  0  0  0  0  0  0  0  0  0
    4.0126    3.8756   -6.6285 H   0  0  0  0  0  0  0  0  0  0  0  0
    4.3155    4.7434   -8.1528 H   0  0  0  0  0  0  0  0  0  0  0  0
    1.3339    5.5531   -8.6528 H   0  0  0  0  0  0  0  0  0  0  0  0
    2.5368    4.9750   -9.8306 H   0  0  0  0  0  0  0  0  0  0  0  0
    1.1090    3.0085  -10.3235 H   0  0  0  0  0  0  0  0  0  0  0  0
   -0.0939    3.5866   -9.1457 H   0  0  0  0  0  0  0  0  0  0  0  0
   -0.5286    3.4560  -12.5770 H   0  0  0  0  0  0  0  0  0  0  0  0
   -1.5547    3.3008  -11.1102 H   0  0  0  0  0  0  0  0  0  0  0  0
   -1.4942    5.5811  -13.1683 H   0  0  0  0  0  0  0  0  0  0  0  0
   -2.9230    4.7809  -12.4318 H   0  0  0  0  0  0  0  0  0  0  0  0
   -1.8188    7.1571  -11.4743 H   0  0  0  0  0  0  0  0  0  0  0  0
   -2.7481    6.0157  -10.4651 H   0  0  0  0  0  0  0  0  0  0  0  0
    1.4496    0.2084   -4.6342 H   0  0  0  0  0  0  0  0  0  0  0  0
  1  2  1  0
  1 29  1  6
  1 30  1  0
  1 31  1  0
  2  3  1  0
  2 32  1  1
  2 33  1  0
  3  4  1  0
  6  3  1  1
  4  5  1  0
  4 34  1  6
  4 35  1  0
  5 36  1  1
  5 37  1  0
  5 38  1  0
  6  7  2  0
  6  8  2  0
  6  9  1  0
  9 28  2  0
  9 10  1  0
 10 11  2  0
 10 39  1  0
 11 12  1  0
 11 40  1  0
 12 13  2  0
 12 41  1  0
 13 14  1  0
 13 28  1  0
 14 15  2  0
 14 16  1  0
 16 17  1  0
 16 42  1  0
 17 18  1  6
 17 19  1  0
 17 20  1  0
 19 43  1  1
 19 44  1  0
 19 45  1  0
 20 21  1  0
 20 46  1  1
 20 47  1  0
 21 22  1  0
 21 48  1  6
 21 49  1  0
 22 23  1  6
 22 27  1  0
 22 24  1  0
 24 25  1  0
 24 50  1  6
 24 51  1  0
 25 26  1  0
 25 52  1  6
 25 53  1  0
 26 27  1  0
 26 54  1  6
 26 55  1  0
 28 56  1  0
M  END
$$$$
