ZINC000072366080
     RDKit          3D

 34 35  0  0  1  0  0  0  0  0999 V2000
    0.8754    1.2959   -0.4461 C   0  0  1  0  0  0  0  0  0  0  0  0
    0.5467   -0.1662   -0.2875 C   0  0  0  0  0  0  0  0  0  0  0  0
    1.0865   -0.8184    0.5809 O   0  0  0  0  0  0  0  0  0  0  0  0
   -0.3473   -0.7491   -1.1106 N   0  0  0  0  0  0  0  0  0  0  0  0
   -0.9400   -0.0032   -2.2311 C   0  0  1  0  0  0  0  0  0  0  0  0
   -2.4638   -0.1495   -2.1615 C   0  0  1  0  0  0  0  0  0  0  0  0
   -2.8138   -1.5753   -2.1102 N   0  0  0  0  0  0  0  0  0  0  0  0
   -2.2871   -2.2099   -0.8945 C   0  0  1  0  0  0  0  0  0  0  0  0
   -0.7515   -2.1498   -0.9159 C   0  0  2  0  0  0  0  0  0  0  0  0
   -0.3724   -2.7635   -1.7331 H   0  0  0  0  0  0  0  0  0  0  0  0
   -0.2067   -2.6584    0.3939 C   0  0  0  0  0  0  0  0  0  0  0  0
   -0.5528   -2.0317    1.5765 C   0  0  0  0  0  0  0  0  0  0  0  0
   -0.0531   -2.4982    2.7779 C   0  0  0  0  0  0  0  0  0  0  0  0
    0.7925   -3.5917    2.7969 C   0  0  0  0  0  0  0  0  0  0  0  0
    1.3377   -4.1000    4.1066 C   0  0  1  0  0  0  0  0  0  0  0  0
    0.4664   -5.0593    4.6336 F   0  0  0  0  0  0  0  0  0  0  0  0
    2.5946   -4.6771    3.8960 F   0  0  0  0  0  0  0  0  0  0  0  0
    1.4582   -3.0353    5.0062 F   0  0  0  0  0  0  0  0  0  0  0  0
    1.1375   -4.2192    1.6145 C   0  0  0  0  0  0  0  0  0  0  0  0
    0.6347   -3.7550    0.4134 C   0  0  0  0  0  0  0  0  0  0  0  0
    1.9529    1.4158   -0.5593 H   0  0  0  0  0  0  0  0  0  0  0  0
    0.3715    1.6878   -1.3296 H   0  0  0  0  0  0  0  0  0  0  0  0
    0.5398    1.8415    0.4357 H   0  0  0  0  0  0  0  0  0  0  0  0
   -0.6694    1.0499   -2.1539 H   0  0  0  0  0  0  0  0  0  0  0  0
   -0.5759   -0.4095   -3.1748 H   0  0  0  0  0  0  0  0  0  0  0  0
   -2.8365    0.3489   -1.2666 H   0  0  0  0  0  0  0  0  0  0  0  0
   -2.9135    0.3038   -3.0449 H   0  0  0  0  0  0  0  0  0  0  0  0
   -3.8117   -1.7055   -2.1828 H   0  0  0  0  0  0  0  0  0  0  0  0
   -2.6623   -1.6827   -0.0173 H   0  0  0  0  0  0  0  0  0  0  0  0
   -2.6087   -3.2507   -0.8590 H   0  0  0  0  0  0  0  0  0  0  0  0
   -1.2134   -1.1775    1.5616 H   0  0  0  0  0  0  0  0  0  0  0  0
   -0.3229   -2.0082    3.7017 H   0  0  0  0  0  0  0  0  0  0  0  0
    1.7978   -5.0737    1.6293 H   0  0  0  0  0  0  0  0  0  0  0  0
    0.9043   -4.2453   -0.5104 H   0  0  0  0  0  0  0  0  0  0  0  0
  1  2  1  0
  1 21  1  6
  1 22  1  0
  1 23  1  0
  2  3  2  0
  2  4  1  0
  4  9  1  0
  4  5  1  0
  5  6  1  0
  5 24  1  1
  5 25  1  0
  6  7  1  0
  6 26  1  1
  6 27  1  0
  7  8  1  0
  7 28  1  0
  8  9  1  0
  8 29  1  1
  8 30  1  0
  9 10  1  6
  9 11  1  0
 11 20  2  0
 11 12  1  0
 12 13  2  0
 12 31  1  0
 13 14  1  0
 13 32  1  0
 14 15  1  0
 14 19  2  0
 15 16  1  1
 15 17  1  0
 15 18  1  0
 19 20  1  0
 19 33  1  0
 20 34  1  0
M  END
$$$$
