ZINC000033625286
     RDKit          3D

 55 57  0  0  1  0  0  0  0  0999 V2000
    1.0271   -5.9024  -10.0352 C   0  0  1  0  0  0  0  0  0  0  0  0
    1.5320   -4.5708   -9.9170 O   0  0  0  0  0  0  0  0  0  0  0  0
    1.7795   -4.1139   -8.6610 C   0  0  0  0  0  0  0  0  0  0  0  0
    1.5469   -4.9321   -7.5659 C   0  0  0  0  0  0  0  0  0  0  0  0
    1.7998   -4.4656   -6.2899 C   0  0  0  0  0  0  0  0  0  0  0  0
    2.2839   -3.1842   -6.1040 C   0  0  0  0  0  0  0  0  0  0  0  0
    2.6051   -2.5931   -4.4755 S   0  0  1  0  0  0  0  0  0  0  0  0
    2.5218   -1.1760   -4.5393 O   0  0  0  0  0  0  0  0  0  0  0  0
    1.8099   -3.3797   -3.5990 O   0  0  0  0  0  0  0  0  0  0  0  0
    4.1830   -2.9535   -4.1255 N   0  0  0  0  0  0  0  0  0  0  0  0
    4.5361   -4.2826   -3.6202 C   0  0  1  0  0  0  0  0  0  0  0  0
    4.9669   -5.1583   -4.7685 C   0  0  0  0  0  0  0  0  0  0  0  0
    4.9779   -4.7159   -5.8977 O   0  0  0  0  0  0  0  0  0  0  0  0
    5.3400   -6.4332   -4.5406 N   0  0  0  0  0  0  0  0  0  0  0  0
    5.7588   -7.2846   -5.6568 C   0  0  1  0  0  0  0  0  0  0  0  0
    6.1276   -8.6726   -5.1292 C   0  0  2  0  0  0  0  0  0  0  0  0
    6.8737   -8.5817   -4.3398 H   0  0  0  0  0  0  0  0  0  0  0  0
    6.6845   -9.5391   -6.2791 C   0  0  1  0  0  0  0  0  0  0  0  0
    6.0668  -10.9306   -5.9723 C   0  0  1  0  0  0  0  0  0  0  0  0
    4.6964  -10.5194   -5.3776 C   0  0  1  0  0  0  0  0  0  0  0  0
    4.9586   -9.3253   -4.6200 O   0  0  0  0  0  0  0  0  0  0  0  0
    5.2259   -1.9434   -4.3211 C   0  0  1  0  0  0  0  0  0  0  0  0
    5.4910   -1.2361   -3.0170 C   0  0  0  0  0  0  0  0  0  0  0  0
    4.8524   -0.0429   -2.7355 C   0  0  0  0  0  0  0  0  0  0  0  0
    5.0956    0.6058   -1.5393 C   0  0  0  0  0  0  0  0  0  0  0  0
    5.9772    0.0611   -0.6245 C   0  0  0  0  0  0  0  0  0  0  0  0
    6.6152   -1.1326   -0.9056 C   0  0  0  0  0  0  0  0  0  0  0  0
    6.3687   -1.7835   -2.0999 C   0  0  0  0  0  0  0  0  0  0  0  0
    2.5171   -2.3656   -7.1939 C   0  0  0  0  0  0  0  0  0  0  0  0
    2.2713   -2.8291   -8.4726 C   0  0  0  0  0  0  0  0  0  0  0  0
    2.5640   -1.8014   -9.8407 Cl  0  0  0  0  0  0  0  0  0  0  0  0
    1.7435   -6.6022   -9.6049 H   0  0  0  0  0  0  0  0  0  0  0  0
    0.0789   -5.9800   -9.5032 H   0  0  0  0  0  0  0  0  0  0  0  0
    0.8736   -6.1407  -11.0877 H   0  0  0  0  0  0  0  0  0  0  0  0
    1.1680   -5.9331   -7.7101 H   0  0  0  0  0  0  0  0  0  0  0  0
    1.6186   -5.1028   -5.4369 H   0  0  0  0  0  0  0  0  0  0  0  0
    5.3534   -4.1938   -2.9045 H   0  0  0  0  0  0  0  0  0  0  0  0
    3.6700   -4.7267   -3.1296 H   0  0  0  0  0  0  0  0  0  0  0  0
    5.3312   -6.7871   -3.6375 H   0  0  0  0  0  0  0  0  0  0  0  0
    4.9415   -7.3733   -6.3726 H   0  0  0  0  0  0  0  0  0  0  0  0
    6.6249   -6.8405   -6.1475 H   0  0  0  0  0  0  0  0  0  0  0  0
    6.3430   -9.1676   -7.2453 H   0  0  0  0  0  0  0  0  0  0  0  0
    7.7731   -9.5809   -6.2411 H   0  0  0  0  0  0  0  0  0  0  0  0
    5.9403  -11.5140   -6.8843 H   0  0  0  0  0  0  0  0  0  0  0  0
    6.6655  -11.4734   -5.2408 H   0  0  0  0  0  0  0  0  0  0  0  0
    3.9841  -10.3127   -6.1764 H   0  0  0  0  0  0  0  0  0  0  0  0
    4.3163  -11.3050   -4.7246 H   0  0  0  0  0  0  0  0  0  0  0  0
    6.1403   -2.4270   -4.6646 H   0  0  0  0  0  0  0  0  0  0  0  0
    4.8955   -1.2197   -5.0662 H   0  0  0  0  0  0  0  0  0  0  0  0
    4.1636    0.3826   -3.4503 H   0  0  0  0  0  0  0  0  0  0  0  0
    4.5972    1.5384   -1.3197 H   0  0  0  0  0  0  0  0  0  0  0  0
    6.1678    0.5683    0.3098 H   0  0  0  0  0  0  0  0  0  0  0  0
    7.3042   -1.5579   -0.1910 H   0  0  0  0  0  0  0  0  0  0  0  0
    6.8671   -2.7161   -2.3196 H   0  0  0  0  0  0  0  0  0  0  0  0
    2.8953   -1.3649   -7.0460 H   0  0  0  0  0  0  0  0  0  0  0  0
  1  2  1  0
  1 32  1  1
  1 33  1  0
  1 34  1  0
  2  3  1  0
  3 30  2  0
  3  4  1  0
  4  5  2  0
  4 35  1  0
  5  6  1  0
  5 36  1  0
  6  7  1  0
  6 29  2  0
  7  8  2  0
  7  9  2  0
  7 10  1  1
 10 11  1  0
 10 22  1  0
 11 12  1  0
 11 37  1  1
 11 38  1  0
 12 13  2  0
 12 14  1  0
 14 15  1  0
 14 39  1  0
 15 16  1  0
 15 40  1  6
 15 41  1  0
 16 17  1  1
 16 21  1  0
 16 18  1  0
 18 19  1  0
 18 42  1  6
 18 43  1  0
 19 20  1  0
 19 44  1  6
 19 45  1  0
 20 21  1  0
 20 46  1  6
 20 47  1  0
 22 23  1  0
 22 48  1  6
 22 49  1  0
 23 28  2  0
 23 24  1  0
 24 25  2  0
 24 50  1  0
 25 26  1  0
 25 51  1  0
 26 27  2  0
 26 52  1  0
 27 28  1  0
 27 53  1  0
 28 54  1  0
 29 30  1  0
 29 55  1  0
 30 31  1  0
M  END
$$$$
