ZINC000000842948
     RDKit          3D

 54 56  0  0  1  0  0  0  0  0999 V2000
   -3.5573   -9.2274   -0.1152 C   0  0  1  0  0  0  0  0  0  0  0  0
   -2.6433   -8.0296   -0.0862 C   0  0  0  0  0  0  0  0  0  0  0  0
   -2.3111   -7.4428    1.1206 C   0  0  0  0  0  0  0  0  0  0  0  0
   -1.4726   -6.3441    1.1472 C   0  0  0  0  0  0  0  0  0  0  0  0
   -0.9661   -5.8324   -0.0329 C   0  0  0  0  0  0  0  0  0  0  0  0
    0.1021   -4.4315    0.0011 S   0  0  1  0  0  0  0  0  0  0  0  0
   -0.0100   -3.8105   -1.2721 O   0  0  0  0  0  0  0  0  0  0  0  0
   -0.1626   -3.7546    1.2221 O   0  0  0  0  0  0  0  0  0  0  0  0
    1.6535   -5.0006    0.1087 N   0  0  0  0  0  0  0  0  0  0  0  0
    2.2154   -5.3532    1.4149 C   0  0  1  0  0  0  0  0  0  0  0  0
    2.0395   -6.8305    1.6553 C   0  0  0  0  0  0  0  0  0  0  0  0
    1.4980   -7.5208    0.8180 O   0  0  0  0  0  0  0  0  0  0  0  0
    2.4838   -7.3844    2.8008 N   0  0  0  0  0  0  0  0  0  0  0  0
    2.3127   -8.8205    3.0344 C   0  0  1  0  0  0  0  0  0  0  0  0
    2.8996   -9.1887    4.3986 C   0  0  1  0  0  0  0  0  0  0  0  0
    2.4007   -8.6272    5.1884 H   0  0  0  0  0  0  0  0  0  0  0  0
    2.7602  -10.7112    4.6508 C   0  0  1  0  0  0  0  0  0  0  0  0
    3.9139  -10.9492    5.6628 C   0  0  1  0  0  0  0  0  0  0  0  0
    4.9816   -9.9415    5.1853 C   0  0  1  0  0  0  0  0  0  0  0  0
    4.3125   -8.9308    4.4196 O   0  0  0  0  0  0  0  0  0  0  0  0
    2.4641   -5.1515   -1.1023 C   0  0  1  0  0  0  0  0  0  0  0  0
    3.3251   -3.9284   -1.2860 C   0  0  0  0  0  0  0  0  0  0  0  0
    2.8966   -2.8976   -2.1012 C   0  0  0  0  0  0  0  0  0  0  0  0
    3.6864   -1.7757   -2.2698 C   0  0  0  0  0  0  0  0  0  0  0  0
    4.9045   -1.6844   -1.6228 C   0  0  0  0  0  0  0  0  0  0  0  0
    5.3327   -2.7149   -0.8069 C   0  0  0  0  0  0  0  0  0  0  0  0
    4.5410   -3.8349   -0.6349 C   0  0  0  0  0  0  0  0  0  0  0  0
   -1.2973   -6.4200   -1.2395 C   0  0  0  0  0  0  0  0  0  0  0  0
   -2.1326   -7.5211   -1.2658 C   0  0  0  0  0  0  0  0  0  0  0  0
   -2.9644  -10.1388   -0.0385 H   0  0  0  0  0  0  0  0  0  0  0  0
   -4.2523   -9.1745    0.7228 H   0  0  0  0  0  0  0  0  0  0  0  0
   -4.1163   -9.2353   -1.0509 H   0  0  0  0  0  0  0  0  0  0  0  0
   -2.7068   -7.8426    2.0425 H   0  0  0  0  0  0  0  0  0  0  0  0
   -1.2136   -5.8852    2.0899 H   0  0  0  0  0  0  0  0  0  0  0  0
    3.2769   -5.1061    1.4325 H   0  0  0  0  0  0  0  0  0  0  0  0
    1.6993   -4.7941    2.1954 H   0  0  0  0  0  0  0  0  0  0  0  0
    2.9169   -6.8323    3.4704 H   0  0  0  0  0  0  0  0  0  0  0  0
    1.2512   -9.0676    3.0169 H   0  0  0  0  0  0  0  0  0  0  0  0
    2.8288   -9.3797    2.2540 H   0  0  0  0  0  0  0  0  0  0  0  0
    1.7933  -10.9490    5.0943 H   0  0  0  0  0  0  0  0  0  0  0  0
    2.9194  -11.2776    3.7333 H   0  0  0  0  0  0  0  0  0  0  0  0
    3.5920  -10.7209    6.6789 H   0  0  0  0  0  0  0  0  0  0  0  0
    4.2864  -11.9712    5.5931 H   0  0  0  0  0  0  0  0  0  0  0  0
    5.4723   -9.4871    6.0461 H   0  0  0  0  0  0  0  0  0  0  0  0
    5.7186  -10.4503    4.5640 H   0  0  0  0  0  0  0  0  0  0  0  0
    3.0994   -6.0321   -1.0069 H   0  0  0  0  0  0  0  0  0  0  0  0
    1.8091   -5.2678   -1.9657 H   0  0  0  0  0  0  0  0  0  0  0  0
    1.9448   -2.9689   -2.6067 H   0  0  0  0  0  0  0  0  0  0  0  0
    3.3518   -0.9706   -2.9072 H   0  0  0  0  0  0  0  0  0  0  0  0
    5.5219   -0.8082   -1.7550 H   0  0  0  0  0  0  0  0  0  0  0  0
    6.2846   -2.6437   -0.3016 H   0  0  0  0  0  0  0  0  0  0  0  0
    4.8755   -4.6400    0.0025 H   0  0  0  0  0  0  0  0  0  0  0  0
   -0.9012   -6.0205   -2.1614 H   0  0  0  0  0  0  0  0  0  0  0  0
   -2.3914   -7.9802   -2.2085 H   0  0  0  0  0  0  0  0  0  0  0  0
  1  2  1  0
  1 30  1  1
  1 31  1  0
  1 32  1  0
  2 29  2  0
  2  3  1  0
  3  4  2  0
  3 33  1  0
  4  5  1  0
  4 34  1  0
  5  6  1  0
  5 28  2  0
  6  7  2  0
  6  8  2  0
  6  9  1  1
  9 10  1  0
  9 21  1  0
 10 11  1  0
 10 35  1  6
 10 36  1  0
 11 12  2  0
 11 13  1  0
 13 14  1  0
 13 37  1  0
 14 15  1  0
 14 38  1  1
 14 39  1  0
 15 16  1  1
 15 20  1  0
 15 17  1  0
 17 18  1  0
 17 40  1  1
 17 41  1  0
 18 19  1  0
 18 42  1  1
 18 43  1  0
 19 20  1  0
 19 44  1  1
 19 45  1  0
 21 22  1  0
 21 46  1  1
 21 47  1  0
 22 27  2  0
 22 23  1  0
 23 24  2  0
 23 48  1  0
 24 25  1  0
 24 49  1  0
 25 26  2  0
 25 50  1  0
 26 27  1  0
 26 51  1  0
 27 52  1  0
 28 29  1  0
 28 53  1  0
 29 54  1  0
M  END
$$$$
