ZINC000013117956
     RDKit          3D

 61 63  0  0  1  0  0  0  0  0999 V2000
   -0.2868    1.3711   -0.6192 C   0  0  1  0  0  0  0  0  0  0  0  0
   -0.0004    0.0021    0.0010 C   0  0  2  0  0  0  0  0  0  0  0  0
    0.5647    0.1324    0.9239 H   0  0  0  0  0  0  0  0  0  0  0  0
    0.8021   -0.8296   -0.9662 C   0  0  0  0  0  0  0  0  0  0  0  0
    0.2694   -1.7312   -1.5778 O   0  0  0  0  0  0  0  0  0  0  0  0
    2.1119   -0.5714   -1.1514 N   0  0  0  0  0  0  0  0  0  0  0  0
    2.7489    0.5773   -0.4930 C   0  0  1  0  0  0  0  0  0  0  0  0
    3.9760    0.0843    0.2802 C   0  0  2  0  0  0  0  0  0  0  0  0
    3.6564   -0.5722    1.0895 H   0  0  0  0  0  0  0  0  0  0  0  0
    4.7285    1.2827    0.8618 C   0  0  1  0  0  0  0  0  0  0  0  0
    4.8966   -0.6861   -0.6691 C   0  0  1  0  0  0  0  0  0  0  0  0
    4.1549   -1.9037   -1.2254 C   0  0  1  0  0  0  0  0  0  0  0  0
    4.8187   -2.4648   -1.8831 H   0  0  0  0  0  0  0  0  0  0  0  0
    3.7046   -2.7993   -0.0695 C   0  0  1  0  0  0  0  0  0  0  0  0
    2.9312   -1.4367   -2.0109 C   0  0  1  0  0  0  0  0  0  0  0  0
   -1.2691   -0.6773    0.2954 N   0  0  0  0  0  0  0  0  0  0  0  0
   -2.1808   -0.6115   -0.8546 C   0  0  1  0  0  0  0  0  0  0  0  0
   -3.4119   -1.4805   -0.5766 C   0  0  1  0  0  0  0  0  0  0  0  0
   -3.9980   -1.0636    0.7063 N   0  0  0  0  0  0  0  0  0  0  0  0
   -5.6105   -0.7065    0.8281 S   0  0  1  0  0  0  0  0  0  0  0  0
   -5.7477    0.1518    1.9522 O   0  0  0  0  0  0  0  0  0  0  0  0
   -6.0426   -0.3514   -0.4782 O   0  0  0  0  0  0  0  0  0  0  0  0
   -6.4463   -2.2022    1.2392 C   0  0  0  0  0  0  0  0  0  0  0  0
   -6.9104   -3.0327    0.2363 C   0  0  0  0  0  0  0  0  0  0  0  0
   -7.5662   -4.2061    0.5589 C   0  0  0  0  0  0  0  0  0  0  0  0
   -7.7573   -4.5492    1.8842 C   0  0  0  0  0  0  0  0  0  0  0  0
   -8.4726   -5.8282    2.2359 C   0  0  1  0  0  0  0  0  0  0  0  0
   -7.5429   -6.8679    2.3440 F   0  0  0  0  0  0  0  0  0  0  0  0
   -9.1389   -5.6697    3.4557 F   0  0  0  0  0  0  0  0  0  0  0  0
   -9.4001   -6.1343    1.2342 F   0  0  0  0  0  0  0  0  0  0  0  0
   -7.2920   -3.7194    2.8871 C   0  0  0  0  0  0  0  0  0  0  0  0
   -6.6329   -2.5479    2.5646 C   0  0  0  0  0  0  0  0  0  0  0  0
   -3.1141   -0.9726    1.8784 C   0  0  1  0  0  0  0  0  0  0  0  0
   -1.8947   -0.1236    1.5038 C   0  0  1  0  0  0  0  0  0  0  0  0
    0.6493    1.9138   -0.7500 H   0  0  0  0  0  0  0  0  0  0  0  0
   -0.7678    1.2375   -1.5882 H   0  0  0  0  0  0  0  0  0  0  0  0
   -0.9462    1.9372    0.0387 H   0  0  0  0  0  0  0  0  0  0  0  0
    3.0581    1.3039   -1.2444 H   0  0  0  0  0  0  0  0  0  0  0  0
    2.0436    1.0401    0.1973 H   0  0  0  0  0  0  0  0  0  0  0  0
    4.0713    1.8322    1.5358 H   0  0  0  0  0  0  0  0  0  0  0  0
    5.6015    0.9315    1.4119 H   0  0  0  0  0  0  0  0  0  0  0  0
    5.0489    1.9383    0.0521 H   0  0  0  0  0  0  0  0  0  0  0  0
    5.1959   -0.0363   -1.4914 H   0  0  0  0  0  0  0  0  0  0  0  0
    5.7824   -1.0169   -0.1270 H   0  0  0  0  0  0  0  0  0  0  0  0
    3.0400   -2.2382    0.5873 H   0  0  0  0  0  0  0  0  0  0  0  0
    3.1765   -3.6664   -0.4662 H   0  0  0  0  0  0  0  0  0  0  0  0
    4.5767   -3.1315    0.4938 H   0  0  0  0  0  0  0  0  0  0  0  0
    2.3465   -2.3015   -2.3245 H   0  0  0  0  0  0  0  0  0  0  0  0
    3.2525   -0.8731   -2.8868 H   0  0  0  0  0  0  0  0  0  0  0  0
   -2.4925    0.4209   -1.0129 H   0  0  0  0  0  0  0  0  0  0  0  0
   -1.6701   -0.9783   -1.7450 H   0  0  0  0  0  0  0  0  0  0  0  0
   -4.1427   -1.3459   -1.3740 H   0  0  0  0  0  0  0  0  0  0  0  0
   -3.1157   -2.5280   -0.5206 H   0  0  0  0  0  0  0  0  0  0  0  0
   -6.7611   -2.7647   -0.7991 H   0  0  0  0  0  0  0  0  0  0  0  0
   -7.9294   -4.8547   -0.2246 H   0  0  0  0  0  0  0  0  0  0  0  0
   -7.4411   -3.9876    3.9226 H   0  0  0  0  0  0  0  0  0  0  0  0
   -6.2694   -1.8995    3.3481 H   0  0  0  0  0  0  0  0  0  0  0  0
   -3.6481   -0.5023    2.7041 H   0  0  0  0  0  0  0  0  0  0  0  0
   -2.7893   -1.9713    2.1704 H   0  0  0  0  0  0  0  0  0  0  0  0
   -1.1766   -0.1367    2.3237 H   0  0  0  0  0  0  0  0  0  0  0  0
   -2.2104    0.9020    1.3125 H   0  0  0  0  0  0  0  0  0  0  0  0
  1  2  1  0
  1 35  1  6
  1 36  1  0
  1 37  1  0
  2  3  1  1
  2  4  1  0
  2 16  1  0
  4  5  2  0
  4  6  1  0
  6 15  1  0
  6  7  1  0
  7  8  1  0
  7 38  1  6
  7 39  1  0
  8  9  1  1
  8 10  1  0
  8 11  1  0
 10 40  1  1
 10 41  1  0
 10 42  1  0
 11 12  1  0
 11 43  1  6
 11 44  1  0
 12 13  1  6
 12 14  1  0
 12 15  1  0
 14 45  1  1
 14 46  1  0
 14 47  1  0
 15 48  1  6
 15 49  1  0
 16 34  1  0
 16 17  1  0
 17 18  1  0
 17 50  1  6
 17 51  1  0
 18 19  1  0
 18 52  1  6
 18 53  1  0
 20 19  1  6
 19 33  1  0
 20 21  2  0
 20 22  2  0
 20 23  1  0
 23 32  2  0
 23 24  1  0
 24 25  2  0
 24 54  1  0
 25 26  1  0
 25 55  1  0
 26 27  1  0
 26 31  2  0
 27 28  1  1
 27 29  1  0
 27 30  1  0
 31 32  1  0
 31 56  1  0
 32 57  1  0
 33 34  1  0
 33 58  1  1
 33 59  1  0
 34 60  1  1
 34 61  1  0
M  END
$$$$
