ZINC000012850796
     RDKit          3D

 49 51  0  0  1  0  0  0  0  0999 V2000
   -1.8008   -1.5704    5.4963 C   0  0  1  0  0  0  0  0  0  0  0  0
   -1.6192   -0.0937    5.7360 C   0  0  0  0  0  0  0  0  0  0  0  0
   -2.0534    0.5900    6.7550 N   0  0  0  0  0  0  0  0  0  0  0  0
   -1.7518    1.7579    6.6687 O   0  0  0  0  0  0  0  0  0  0  0  0
   -1.0587    2.0062    5.5486 C   0  0  0  0  0  0  0  0  0  0  0  0
   -0.5148    3.3384    5.1009 C   0  0  1  0  0  0  0  0  0  0  0  0
   -0.9383    0.8223    4.9017 C   0  0  0  0  0  0  0  0  0  0  0  0
   -0.1297    0.5004    3.3696 S   0  0  1  0  0  0  0  0  0  0  0  0
   -0.8060   -0.6032    2.7831 O   0  0  0  0  0  0  0  0  0  0  0  0
    0.0160    1.7564    2.7211 O   0  0  0  0  0  0  0  0  0  0  0  0
    1.4008   -0.0235    3.7237 N   0  0  0  0  0  0  0  0  0  0  0  0
    1.7883   -1.4180    4.0038 C   0  0  1  0  0  0  0  0  0  0  0  0
    3.2961   -1.4882    3.6556 C   0  0  1  0  0  0  0  0  0  0  0  0
    3.7915   -0.0982    4.1350 C   0  0  1  0  0  0  0  0  0  0  0  0
    2.5993    0.8242    3.8044 C   0  0  1  0  0  0  0  0  0  0  0  0
    2.4720    1.5632    4.5954 H   0  0  0  0  0  0  0  0  0  0  0  0
    2.8380    1.5184    2.4883 C   0  0  0  0  0  0  0  0  0  0  0  0
    2.4228    1.0277    1.4598 O   0  0  0  0  0  0  0  0  0  0  0  0
    3.5127    2.6846    2.4542 N   0  0  0  0  0  0  0  0  0  0  0  0
    3.7447    3.3595    1.1747 C   0  0  1  0  0  0  0  0  0  0  0  0
    4.5157    4.6326    1.4109 C   0  0  0  0  0  0  0  0  0  0  0  0
    3.8409    5.8143    1.6542 C   0  0  0  0  0  0  0  0  0  0  0  0
    4.5482    6.9821    1.8708 C   0  0  0  0  0  0  0  0  0  0  0  0
    5.9302    6.9681    1.8445 C   0  0  0  0  0  0  0  0  0  0  0  0
    6.7012    8.2413    2.0802 C   0  0  1  0  0  0  0  0  0  0  0  0
    6.9618    8.3824    3.4474 F   0  0  0  0  0  0  0  0  0  0  0  0
    7.9100    8.1913    1.3778 F   0  0  0  0  0  0  0  0  0  0  0  0
    5.9475    9.3323    1.6342 F   0  0  0  0  0  0  0  0  0  0  0  0
    6.6050    5.7862    1.6026 C   0  0  0  0  0  0  0  0  0  0  0  0
    5.8978    4.6176    1.3898 C   0  0  0  0  0  0  0  0  0  0  0  0
   -0.9261   -2.1081    5.8621 H   0  0  0  0  0  0  0  0  0  0  0  0
   -2.6883   -1.9179    6.0250 H   0  0  0  0  0  0  0  0  0  0  0  0
   -1.9192   -1.7533    4.4282 H   0  0  0  0  0  0  0  0  0  0  0  0
   -0.7703    4.1010    5.8366 H   0  0  0  0  0  0  0  0  0  0  0  0
    0.5691    3.2747    5.0051 H   0  0  0  0  0  0  0  0  0  0  0  0
   -0.9498    3.6031    4.1372 H   0  0  0  0  0  0  0  0  0  0  0  0
    1.6309   -1.6512    5.0569 H   0  0  0  0  0  0  0  0  0  0  0  0
    1.2212   -2.1032    3.3737 H   0  0  0  0  0  0  0  0  0  0  0  0
    3.7876   -2.2897    4.2072 H   0  0  0  0  0  0  0  0  0  0  0  0
    3.4441   -1.6069    2.5823 H   0  0  0  0  0  0  0  0  0  0  0  0
    3.9905   -0.1082    5.2066 H   0  0  0  0  0  0  0  0  0  0  0  0
    4.6783    0.2077    3.5798 H   0  0  0  0  0  0  0  0  0  0  0  0
    3.8448    3.0771    3.2767 H   0  0  0  0  0  0  0  0  0  0  0  0
    4.3167    2.7049    0.5171 H   0  0  0  0  0  0  0  0  0  0  0  0
    2.7875    3.5953    0.7096 H   0  0  0  0  0  0  0  0  0  0  0  0
    2.7612    5.8252    1.6747 H   0  0  0  0  0  0  0  0  0  0  0  0
    4.0210    7.9054    2.0602 H   0  0  0  0  0  0  0  0  0  0  0  0
    7.6848    5.7752    1.5824 H   0  0  0  0  0  0  0  0  0  0  0  0
    6.4250    3.6942    1.2007 H   0  0  0  0  0  0  0  0  0  0  0  0
  1  2  1  0
  1 31  1  1
  1 32  1  0
  1 33  1  0
  2  7  1  0
  2  3  2  0
  3  4  1  0
  4  5  1  0
  5  6  1  0
  5  7  2  0
  6 34  1  1
  6 35  1  0
  6 36  1  0
  7  8  1  0
  8  9  2  0
  8 10  2  0
  8 11  1  1
 11 15  1  0
 11 12  1  0
 12 13  1  0
 12 37  1  1
 12 38  1  0
 13 14  1  0
 13 39  1  1
 13 40  1  0
 14 15  1  0
 14 41  1  1
 14 42  1  0
 15 16  1  1
 15 17  1  0
 17 18  2  0
 17 19  1  0
 19 20  1  0
 19 43  1  0
 20 21  1  0
 20 44  1  6
 20 45  1  0
 21 30  2  0
 21 22  1  0
 22 23  2  0
 22 46  1  0
 23 24  1  0
 23 47  1  0
 24 25  1  0
 24 29  2  0
 25 26  1  1
 25 27  1  0
 25 28  1  0
 29 30  1  0
 29 48  1  0
 30 49  1  0
M  END
$$$$
