ZINC000000166218
     RDKit          3D

 32 33  0  0  1  0  0  0  0  0999 V2000
    0.0021   -0.0041    0.0020 O   0  0  0  0  0  0  0  0  0  0  0  0
   -0.0145    1.2150    0.0087 C   0  0  0  0  0  0  0  0  0  0  0  0
    1.0330    1.8389    0.0021 O   0  0  0  0  0  0  0  0  0  0  0  0
   -1.3296    1.9507    0.0190 C   0  0  2  0  0  0  0  0  0  0  0  0
   -1.9757    1.5440    0.7970 H   0  0  0  0  0  0  0  0  0  0  0  0
   -2.0165    1.8171   -1.3565 C   0  0  1  0  0  0  0  0  0  0  0  0
   -2.6464    3.2192   -1.5681 C   0  0  1  0  0  0  0  0  0  0  0  0
   -1.5848    4.1389   -0.9148 C   0  0  1  0  0  0  0  0  0  0  0  0
   -1.0996    3.3830    0.2582 N   0  0  0  0  0  0  0  0  0  0  0  0
   -0.4105    4.0409    1.6127 S   0  0  1  0  0  0  0  0  0  0  0  0
    0.3798    3.0158    2.1992 O   0  0  0  0  0  0  0  0  0  0  0  0
    0.1166    5.3016    1.2228 O   0  0  0  0  0  0  0  0  0  0  0  0
   -1.7136    4.3767    2.7502 C   0  0  0  0  0  0  0  0  0  0  0  0
   -2.3545    5.6009    2.7251 C   0  0  0  0  0  0  0  0  0  0  0  0
   -3.3769    5.8644    3.6176 C   0  0  0  0  0  0  0  0  0  0  0  0
   -3.7585    4.9033    4.5347 C   0  0  0  0  0  0  0  0  0  0  0  0
   -3.1180    3.6784    4.5593 C   0  0  0  0  0  0  0  0  0  0  0  0
   -3.5336    2.6307    5.5596 C   0  0  1  0  0  0  0  0  0  0  0  0
   -4.5779    3.1265    6.3475 F   0  0  0  0  0  0  0  0  0  0  0  0
   -3.9639    1.4844    4.8828 F   0  0  0  0  0  0  0  0  0  0  0  0
   -2.4450    2.3085    6.3771 F   0  0  0  0  0  0  0  0  0  0  0  0
   -2.0987    3.4134    3.6642 C   0  0  0  0  0  0  0  0  0  0  0  0
   -1.2836    1.6022   -2.1343 H   0  0  0  0  0  0  0  0  0  0  0  0
   -2.7882    1.0477   -1.3291 H   0  0  0  0  0  0  0  0  0  0  0  0
   -2.7564    3.4419   -2.6294 H   0  0  0  0  0  0  0  0  0  0  0  0
   -3.6033    3.2994   -1.0524 H   0  0  0  0  0  0  0  0  0  0  0  0
   -0.7672    4.3281   -1.6104 H   0  0  0  0  0  0  0  0  0  0  0  0
   -2.0393    5.0775   -0.5980 H   0  0  0  0  0  0  0  0  0  0  0  0
   -2.0564    6.3519    2.0084 H   0  0  0  0  0  0  0  0  0  0  0  0
   -3.8773    6.8213    3.5984 H   0  0  0  0  0  0  0  0  0  0  0  0
   -4.5567    5.1094    5.2324 H   0  0  0  0  0  0  0  0  0  0  0  0
   -1.5984    2.4565    3.6834 H   0  0  0  0  0  0  0  0  0  0  0  0
  1  2  2  0
  2  3  1  0
  2  4  1  0
  4  5  1  1
  4  9  1  0
  4  6  1  0
  6  7  1  0
  6 23  1  6
  6 24  1  0
  7  8  1  0
  7 25  1  6
  7 26  1  0
  8  9  1  0
  8 27  1  6
  8 28  1  0
 10  9  1  6
 10 11  2  0
 10 12  2  0
 10 13  1  0
 13 22  2  0
 13 14  1  0
 14 15  2  0
 14 29  1  0
 15 16  1  0
 15 30  1  0
 16 17  2  0
 16 31  1  0
 17 18  1  0
 17 22  1  0
 18 19  1  1
 18 20  1  0
 18 21  1  0
 22 32  1  0
M  END
$$$$
