ZINC000020032689
     RDKit          3D

 55 56  0  0  0  0  0  0  0  0999 V2000
   -0.0178    1.4608    0.0101 C   0  0  1  0  0  0  0  0  0  0  0  0
    0.0021   -0.0041    0.0020 N   0  0  0  0  0  0  0  0  0  0  0  0
    0.0241   -0.7433    1.2666 C   0  0  1  0  0  0  0  0  0  0  0  0
   -0.0004   -0.8243   -1.4366 S   0  0  1  0  0  0  0  0  0  0  0  0
   -0.5247   -2.1160   -1.1611 O   0  0  0  0  0  0  0  0  0  0  0  0
   -0.5660    0.0551   -2.3989 O   0  0  0  0  0  0  0  0  0  0  0  0
    1.6816   -1.0597   -1.9056 C   0  0  0  0  0  0  0  0  0  0  0  0
    2.3234   -0.1095   -2.6777 C   0  0  0  0  0  0  0  0  0  0  0  0
    3.6430   -0.2942   -3.0457 C   0  0  0  0  0  0  0  0  0  0  0  0
    4.3210   -1.4289   -2.6412 C   0  0  0  0  0  0  0  0  0  0  0  0
    5.7594   -1.6304   -3.0428 C   0  0  1  0  0  0  0  0  0  0  0  0
    6.6369   -1.0418   -2.0280 N   0  0  0  0  0  0  0  0  0  0  0  0
    7.9750   -1.1025   -2.1769 C   0  0  0  0  0  0  0  0  0  0  0  0
    8.4528   -1.6443   -3.1511 O   0  0  0  0  0  0  0  0  0  0  0  0
    8.8776   -0.4970   -1.1330 C   0  0  1  0  0  0  0  0  0  0  0  0
   10.2416   -0.6882   -1.5138 O   0  0  0  0  0  0  0  0  0  0  0  0
   11.1910   -0.1974   -0.6744 C   0  0  0  0  0  0  0  0  0  0  0  0
   10.8177    0.4496    0.4946 C   0  0  0  0  0  0  0  0  0  0  0  0
   11.7847    0.9472    1.3464 C   0  0  0  0  0  0  0  0  0  0  0  0
   13.1238    0.8011    1.0345 C   0  0  0  0  0  0  0  0  0  0  0  0
   14.3549    1.4374    2.1228 S   0  0  1  0  0  0  0  0  0  0  0  0
   15.5188    1.6448    1.3346 O   0  0  0  0  0  0  0  0  0  0  0  0
   13.7312    2.4695    2.8746 O   0  0  0  0  0  0  0  0  0  0  0  0
   14.7269    0.2347    3.1987 N   0  0  0  0  0  0  0  0  0  0  0  0
   15.7989   -0.7158    2.8929 C   0  0  1  0  0  0  0  0  0  0  0  0
   13.9841    0.1213    4.4563 C   0  0  1  0  0  0  0  0  0  0  0  0
   13.4985    0.1563   -0.1297 C   0  0  0  0  0  0  0  0  0  0  0  0
   12.5354   -0.3477   -0.9822 C   0  0  0  0  0  0  0  0  0  0  0  0
    3.6797   -2.3784   -1.8680 C   0  0  0  0  0  0  0  0  0  0  0  0
    2.3612   -2.1919   -1.4968 C   0  0  0  0  0  0  0  0  0  0  0  0
    1.0048    1.8381    0.0023 H   0  0  0  0  0  0  0  0  0  0  0  0
   -0.5450    1.8219   -0.8730 H   0  0  0  0  0  0  0  0  0  0  0  0
   -0.5280    1.8123    0.9069 H   0  0  0  0  0  0  0  0  0  0  0  0
   -0.9979   -0.9406    1.5900 H   0  0  0  0  0  0  0  0  0  0  0  0
    0.5496   -1.6879    1.1262 H   0  0  0  0  0  0  0  0  0  0  0  0
    0.5371   -0.1514    2.0246 H   0  0  0  0  0  0  0  0  0  0  0  0
    1.7936    0.7771   -2.9938 H   0  0  0  0  0  0  0  0  0  0  0  0
    4.1441    0.4479   -3.6495 H   0  0  0  0  0  0  0  0  0  0  0  0
    5.9668   -2.6971   -3.1279 H   0  0  0  0  0  0  0  0  0  0  0  0
    5.9396   -1.1475   -4.0032 H   0  0  0  0  0  0  0  0  0  0  0  0
    6.2547   -0.6085   -1.2488 H   0  0  0  0  0  0  0  0  0  0  0  0
    8.6702    0.5697   -1.0478 H   0  0  0  0  0  0  0  0  0  0  0  0
    8.6973   -0.9800   -0.1725 H   0  0  0  0  0  0  0  0  0  0  0  0
    9.7718    0.5646    0.7384 H   0  0  0  0  0  0  0  0  0  0  0  0
   11.4946    1.4510    2.2566 H   0  0  0  0  0  0  0  0  0  0  0  0
   16.7449   -0.3318    3.2746 H   0  0  0  0  0  0  0  0  0  0  0  0
   15.5796   -1.6744    3.3632 H   0  0  0  0  0  0  0  0  0  0  0  0
   15.8698   -0.8485    1.8133 H   0  0  0  0  0  0  0  0  0  0  0  0
   13.2324    0.9091    4.5066 H   0  0  0  0  0  0  0  0  0  0  0  0
   13.4946   -0.8515    4.5027 H   0  0  0  0  0  0  0  0  0  0  0  0
   14.6726    0.2220    5.2953 H   0  0  0  0  0  0  0  0  0  0  0  0
   14.5452    0.0431   -0.3710 H   0  0  0  0  0  0  0  0  0  0  0  0
   12.8286   -0.8514   -1.8915 H   0  0  0  0  0  0  0  0  0  0  0  0
    4.2095   -3.2648   -1.5516 H   0  0  0  0  0  0  0  0  0  0  0  0
    1.8602   -2.9338   -0.8927 H   0  0  0  0  0  0  0  0  0  0  0  0
  1  2  1  0
  1 31  1  6
  1 32  1  0
  1 33  1  0
  2  3  1  0
  4  2  1  1
  3 34  1  1
  3 35  1  0
  3 36  1  0
  4  5  2  0
  4  6  2  0
  4  7  1  0
  7 30  2  0
  7  8  1  0
  8  9  2  0
  8 37  1  0
  9 10  1  0
  9 38  1  0
 10 11  1  0
 10 29  2  0
 11 12  1  0
 11 39  1  6
 11 40  1  0
 12 13  1  0
 12 41  1  0
 13 14  2  0
 13 15  1  0
 15 16  1  0
 15 42  1  1
 15 43  1  0
 16 17  1  0
 17 28  2  0
 17 18  1  0
 18 19  2  0
 18 44  1  0
 19 20  1  0
 19 45  1  0
 20 21  1  0
 20 27  2  0
 21 22  2  0
 21 23  2  0
 21 24  1  1
 24 25  1  0
 24 26  1  0
 25 46  1  1
 25 47  1  0
 25 48  1  0
 26 49  1  1
 26 50  1  0
 26 51  1  0
 27 28  1  0
 27 52  1  0
 28 53  1  0
 29 30  1  0
 29 54  1  0
 30 55  1  0
M  END
$$$$
