ZINC000001166468
     RDKit          3D

 50 52  0  0  0  0  0  0  0  0999 V2000
   -3.4433   -8.8416    0.6365 C   0  0  1  0  0  0  0  0  0  0  0  0
   -2.5321   -7.6540    0.4625 C   0  0  0  0  0  0  0  0  0  0  0  0
   -2.2436   -6.8401    1.5419 C   0  0  0  0  0  0  0  0  0  0  0  0
   -1.4078   -5.7507    1.3823 C   0  0  0  0  0  0  0  0  0  0  0  0
   -0.8601   -5.4754    0.1433 C   0  0  0  0  0  0  0  0  0  0  0  0
    0.0507   -4.2875   -0.0308 C   0  0  1  0  0  0  0  0  0  0  0  0
    1.4456   -4.7207    0.0831 N   0  0  0  0  0  0  0  0  0  0  0  0
    2.0613   -4.8679    1.4042 C   0  0  1  0  0  0  0  0  0  0  0  0
    1.7433   -6.2331    1.9574 C   0  0  0  0  0  0  0  0  0  0  0  0
    1.0687   -7.0070    1.3117 O   0  0  0  0  0  0  0  0  0  0  0  0
    2.2085   -6.5941    3.1697 N   0  0  0  0  0  0  0  0  0  0  0  0
    1.8994   -7.9213    3.7075 C   0  0  1  0  0  0  0  0  0  0  0  0
    3.0363   -8.6935    4.3798 C   0  0  1  0  0  0  0  0  0  0  0  0
    1.9158   -8.0887    5.2282 C   0  0  1  0  0  0  0  0  0  0  0  0
    2.3262   -5.0441   -1.2816 S   0  0  1  0  0  0  0  0  0  0  0  0
    3.2845   -6.0280   -0.9170 O   0  0  0  0  0  0  0  0  0  0  0  0
    1.3864   -5.2261   -2.3318 O   0  0  0  0  0  0  0  0  0  0  0  0
    3.2345   -3.5861   -1.6739 C   0  0  0  0  0  0  0  0  0  0  0  0
    2.7216   -2.6745   -2.5776 C   0  0  0  0  0  0  0  0  0  0  0  0
    3.4342   -1.5306   -2.8854 C   0  0  0  0  0  0  0  0  0  0  0  0
    4.6595   -1.2982   -2.2891 C   0  0  0  0  0  0  0  0  0  0  0  0
    5.4366   -0.0515   -2.6249 C   0  0  1  0  0  0  0  0  0  0  0  0
    5.1718   -2.2092   -1.3843 C   0  0  0  0  0  0  0  0  0  0  0  0
    4.4574   -3.3512   -1.0737 C   0  0  0  0  0  0  0  0  0  0  0  0
   -1.1475   -6.2901   -0.9359 C   0  0  0  0  0  0  0  0  0  0  0  0
   -1.9802   -7.3817   -0.7754 C   0  0  0  0  0  0  0  0  0  0  0  0
   -2.8525   -9.7157    0.9104 H   0  0  0  0  0  0  0  0  0  0  0  0
   -4.1677   -8.6315    1.4233 H   0  0  0  0  0  0  0  0  0  0  0  0
   -3.9686   -9.0366   -0.2985 H   0  0  0  0  0  0  0  0  0  0  0  0
   -2.6715   -7.0552    2.5100 H   0  0  0  0  0  0  0  0  0  0  0  0
   -1.1829   -5.1144    2.2255 H   0  0  0  0  0  0  0  0  0  0  0  0
   -0.1132   -3.8449   -1.0133 H   0  0  0  0  0  0  0  0  0  0  0  0
   -0.1644   -3.5485    0.7410 H   0  0  0  0  0  0  0  0  0  0  0  0
    3.1418   -4.7542    1.3161 H   0  0  0  0  0  0  0  0  0  0  0  0
    1.6691   -4.1036    2.0751 H   0  0  0  0  0  0  0  0  0  0  0  0
    2.7481   -5.9751    3.6861 H   0  0  0  0  0  0  0  0  0  0  0  0
    1.1632   -8.4963    3.1458 H   0  0  0  0  0  0  0  0  0  0  0  0
    3.0483   -9.7769    4.2604 H   0  0  0  0  0  0  0  0  0  0  0  0
    4.0143   -8.2141    4.4220 H   0  0  0  0  0  0  0  0  0  0  0  0
    2.1567   -7.2114    5.8286 H   0  0  0  0  0  0  0  0  0  0  0  0
    1.1908   -8.7742    5.6670 H   0  0  0  0  0  0  0  0  0  0  0  0
    1.7643   -2.8560   -3.0435 H   0  0  0  0  0  0  0  0  0  0  0  0
    3.0338   -0.8187   -3.5919 H   0  0  0  0  0  0  0  0  0  0  0  0
    5.1560    0.7475   -1.9386 H   0  0  0  0  0  0  0  0  0  0  0  0
    6.5039   -0.2524   -2.5318 H   0  0  0  0  0  0  0  0  0  0  0  0
    5.2120    0.2522   -3.6474 H   0  0  0  0  0  0  0  0  0  0  0  0
    6.1289   -2.0275   -0.9182 H   0  0  0  0  0  0  0  0  0  0  0  0
    4.8576   -4.0629   -0.3668 H   0  0  0  0  0  0  0  0  0  0  0  0
   -0.7193   -6.0752   -1.9038 H   0  0  0  0  0  0  0  0  0  0  0  0
   -2.2048   -8.0182   -1.6185 H   0  0  0  0  0  0  0  0  0  0  0  0
  1  2  1  0
  1 27  1  1
  1 28  1  0
  1 29  1  0
  2 26  2  0
  2  3  1  0
  3  4  2  0
  3 30  1  0
  4  5  1  0
  4 31  1  0
  5  6  1  0
  5 25  2  0
  6  7  1  0
  6 32  1  6
  6 33  1  0
  7  8  1  0
 15  7  1  1
  8  9  1  0
  8 34  1  6
  8 35  1  0
  9 10  2  0
  9 11  1  0
 11 12  1  0
 11 36  1  0
 12 14  1  0
 12 13  1  0
 12 37  1  6
 13 14  1  0
 13 38  1  6
 13 39  1  0
 14 40  1  1
 14 41  1  0
 15 16  2  0
 15 17  2  0
 15 18  1  0
 18 24  2  0
 18 19  1  0
 19 20  2  0
 19 42  1  0
 20 21  1  0
 20 43  1  0
 21 22  1  0
 21 23  2  0
 22 44  1  1
 22 45  1  0
 22 46  1  0
 23 24  1  0
 23 47  1  0
 24 48  1  0
 25 26  1  0
 25 49  1  0
 26 50  1  0
M  END
$$$$
