ZINC000069453766
     RDKit          3D

 34 35  0  0  1  0  0  0  0  0999 V2000
   -0.0162    1.3436    0.0094 N   0  0  0  0  0  0  0  0  0  0  0  0
    0.0021   -0.0041    0.0020 C   0  0  0  0  0  0  0  0  0  0  0  0
    1.0605   -0.5961   -0.0113 O   0  0  0  0  0  0  0  0  0  0  0  0
   -1.2926   -0.7753    0.0102 C   0  0  1  0  0  0  0  0  0  0  0  0
   -1.8808   -0.5292    0.8943 H   0  0  0  0  0  0  0  0  0  0  0  0
   -2.1040   -0.4995   -1.2832 C   0  0  1  0  0  0  0  0  0  0  0  0
   -2.9444   -1.7952   -1.4053 C   0  0  1  0  0  0  0  0  0  0  0  0
   -2.0453   -2.8722   -0.9524 N   0  0  0  0  0  0  0  0  0  0  0  0
   -2.1648   -4.4696   -1.3724 S   0  0  1  0  0  0  0  0  0  0  0  0
   -1.5134   -5.2043   -0.3452 O   0  0  0  0  0  0  0  0  0  0  0  0
   -3.5191   -4.6866   -1.7439 O   0  0  0  0  0  0  0  0  0  0  0  0
   -1.2056   -4.6982   -2.8326 C   0  0  0  0  0  0  0  0  0  0  0  0
   -0.0859   -5.5073   -2.8044 C   0  0  0  0  0  0  0  0  0  0  0  0
    0.6671   -5.6868   -3.9500 C   0  0  0  0  0  0  0  0  0  0  0  0
    1.8881   -6.5695   -3.9179 C   0  0  1  0  0  0  0  0  0  0  0  0
    1.5227   -7.8825   -4.2335 F   0  0  0  0  0  0  0  0  0  0  0  0
    2.8218   -6.1080   -4.8519 F   0  0  0  0  0  0  0  0  0  0  0  0
    2.4532   -6.5373   -2.6386 F   0  0  0  0  0  0  0  0  0  0  0  0
    0.3005   -5.0576   -5.1249 C   0  0  0  0  0  0  0  0  0  0  0  0
   -0.8189   -4.2474   -5.1554 C   0  0  0  0  0  0  0  0  0  0  0  0
   -1.5768   -4.0715   -4.0104 C   0  0  0  0  0  0  0  0  0  0  0  0
   -2.6712   -3.2798   -4.0390 F   0  0  0  0  0  0  0  0  0  0  0  0
   -1.0244   -2.2933   -0.0620 C   0  0  1  0  0  0  0  0  0  0  0  0
    0.8172    1.8399    0.0041 H   0  0  0  0  0  0  0  0  0  0  0  0
   -0.8627    1.8171    0.0160 H   0  0  0  0  0  0  0  0  0  0  0  0
   -2.7463    0.3729   -1.1630 H   0  0  0  0  0  0  0  0  0  0  0  0
   -1.4426   -0.3805   -2.1414 H   0  0  0  0  0  0  0  0  0  0  0  0
   -3.8231   -1.7393   -0.7628 H   0  0  0  0  0  0  0  0  0  0  0  0
   -3.2407   -1.9589   -2.4413 H   0  0  0  0  0  0  0  0  0  0  0  0
    0.2015   -5.9994   -1.8869 H   0  0  0  0  0  0  0  0  0  0  0  0
    0.8892   -5.1988   -6.0193 H   0  0  0  0  0  0  0  0  0  0  0  0
   -1.1048   -3.7554   -6.0734 H   0  0  0  0  0  0  0  0  0  0  0  0
   -0.0304   -2.4727   -0.4717 H   0  0  0  0  0  0  0  0  0  0  0  0
   -1.1040   -2.7364    0.9307 H   0  0  0  0  0  0  0  0  0  0  0  0
  1  2  1  0
  1 24  1  0
  1 25  1  0
  2  3  2  0
  2  4  1  0
  4  5  1  1
  4 23  1  0
  4  6  1  0
  6  7  1  0
  6 26  1  1
  6 27  1  0
  7  8  1  0
  7 28  1  1
  7 29  1  0
  9  8  1  1
  8 23  1  0
  9 10  2  0
  9 11  2  0
  9 12  1  0
 12 21  2  0
 12 13  1  0
 13 14  2  0
 13 30  1  0
 14 15  1  0
 14 19  1  0
 15 16  1  6
 15 17  1  0
 15 18  1  0
 19 20  2  0
 19 31  1  0
 20 21  1  0
 20 32  1  0
 21 22  1  0
 23 33  1  6
 23 34  1  0
M  END
$$$$
