ZINC000095370234
     RDKit          3D

 42 43  0  0  1  0  0  0  0  0999 V2000
   -0.0187    1.5258    0.0104 C   0  0  1  0  0  0  0  0  0  0  0  0
    0.0021   -0.0041    0.0020 C   0  0  1  0  0  0  0  0  0  0  0  0
   -1.4333   -0.5336    0.0129 C   0  0  1  0  0  0  0  0  0  0  0  0
   -1.4126   -2.0635    0.0045 C   0  0  1  0  0  0  0  0  0  0  0  0
   -0.8201   -2.4351   -0.8316 H   0  0  0  0  0  0  0  0  0  0  0  0
   -0.8714   -2.6096    1.3426 C   0  0  1  0  0  0  0  0  0  0  0  0
   -1.6751   -3.7910    1.6889 N   0  0  0  0  0  0  0  0  0  0  0  0
   -1.4964   -4.7140    3.0521 S   0  0  1  0  0  0  0  0  0  0  0  0
   -2.0352   -5.9924    2.7446 O   0  0  0  0  0  0  0  0  0  0  0  0
   -0.1605   -4.5199    3.4959 O   0  0  0  0  0  0  0  0  0  0  0  0
   -2.5383   -4.0200    4.2921 C   0  0  0  0  0  0  0  0  0  0  0  0
   -2.0508   -3.0385    5.1346 C   0  0  0  0  0  0  0  0  0  0  0  0
   -2.8683   -2.4941    6.1074 C   0  0  0  0  0  0  0  0  0  0  0  0
   -4.1734   -2.9309    6.2373 C   0  0  0  0  0  0  0  0  0  0  0  0
   -5.0643   -2.3377    7.2981 C   0  0  1  0  0  0  0  0  0  0  0  0
   -5.7352   -1.2266    6.7759 F   0  0  0  0  0  0  0  0  0  0  0  0
   -5.9979   -3.2942    7.7114 F   0  0  0  0  0  0  0  0  0  0  0  0
   -4.2872   -1.9416    8.3919 F   0  0  0  0  0  0  0  0  0  0  0  0
   -4.6613   -3.9114    5.3939 C   0  0  0  0  0  0  0  0  0  0  0  0
   -3.8450   -4.4531    4.4186 C   0  0  0  0  0  0  0  0  0  0  0  0
   -2.6669   -4.0174    0.6219 C   0  0  1  0  0  0  0  0  0  0  0  0
   -2.8553   -2.6318   -0.0496 C   0  0  2  0  0  0  0  0  0  0  0  0
   -3.5396   -2.0085    0.5260 H   0  0  0  0  0  0  0  0  0  0  0  0
   -3.3195   -2.7772   -1.4357 N   0  0  1  0  0  0  0  0  0  0  0  0
   -4.2146   -3.2428   -1.4436 H   0  0  0  0  0  0  0  0  0  0  0  0
   -3.4112   -1.8650   -1.8571 H   0  0  0  0  0  0  0  0  0  0  0  0
   -2.6515   -3.3235   -1.9586 H   0  0  0  0  0  0  0  0  0  0  0  0
    1.0039    1.9031    0.0027 H   0  0  0  0  0  0  0  0  0  0  0  0
   -0.5459    1.8868   -0.8726 H   0  0  0  0  0  0  0  0  0  0  0  0
   -0.5289    1.8773    0.9072 H   0  0  0  0  0  0  0  0  0  0  0  0
    0.5123   -0.3556   -0.8948 H   0  0  0  0  0  0  0  0  0  0  0  0
    0.5293   -0.3651    0.8851 H   0  0  0  0  0  0  0  0  0  0  0  0
   -1.9435   -0.1821    0.9097 H   0  0  0  0  0  0  0  0  0  0  0  0
   -1.9605   -0.1726   -0.8702 H   0  0  0  0  0  0  0  0  0  0  0  0
    0.1752   -2.8929    1.2312 H   0  0  0  0  0  0  0  0  0  0  0  0
   -0.9719   -1.8521    2.1199 H   0  0  0  0  0  0  0  0  0  0  0  0
   -1.0312   -2.6973    5.0331 H   0  0  0  0  0  0  0  0  0  0  0  0
   -2.4872   -1.7278    6.7661 H   0  0  0  0  0  0  0  0  0  0  0  0
   -5.6810   -4.2524    5.4952 H   0  0  0  0  0  0  0  0  0  0  0  0
   -4.2262   -5.2192    3.7597 H   0  0  0  0  0  0  0  0  0  0  0  0
   -2.2872   -4.7382   -0.1023 H   0  0  0  0  0  0  0  0  0  0  0  0
   -3.6084   -4.3652    1.0468 H   0  0  0  0  0  0  0  0  0  0  0  0
  1  2  1  0
  1 28  1  6
  1 29  1  0
  1 30  1  0
  2  3  1  0
  2 31  1  6
  2 32  1  0
  3  4  1  0
  3 33  1  1
  3 34  1  0
  4  5  1  6
  4 22  1  0
  4  6  1  0
  6  7  1  0
  6 35  1  6
  6 36  1  0
  8  7  1  6
  7 21  1  0
  8  9  2  0
  8 10  2  0
  8 11  1  0
 11 20  2  0
 11 12  1  0
 12 13  2  0
 12 37  1  0
 13 14  1  0
 13 38  1  0
 14 15  1  0
 14 19  2  0
 15 16  1  6
 15 17  1  0
 15 18  1  0
 19 20  1  0
 19 39  1  0
 20 40  1  0
 21 22  1  0
 21 41  1  6
 21 42  1  0
 22 23  1  1
 22 24  1  0
 24 25  1  1
 24 26  1  0
 24 27  1  0
M  CHG  1  24   1
M  END
$$$$
