ZINC000123580116
     RDKit          3D

 36 37  0  0  1  0  0  0  0  0999 V2000
   -0.1176    1.3881   -0.0313 C   0  0  1  0  0  0  0  0  0  0  0  0
   -0.0051   -0.1141    0.0122 C   0  0  0  0  0  0  0  0  0  0  0  0
   -0.0717   -0.8462   -1.1582 C   0  0  0  0  0  0  0  0  0  0  0  0
    0.0315   -2.2244   -1.1182 C   0  0  0  0  0  0  0  0  0  0  0  0
    0.2018   -2.8698    0.0920 C   0  0  0  0  0  0  0  0  0  0  0  0
    0.3139   -4.3720    0.1356 C   0  0  1  0  0  0  0  0  0  0  0  0
    0.2175   -4.8847   -1.1625 F   0  0  0  0  0  0  0  0  0  0  0  0
    1.5475   -4.7318    0.6886 F   0  0  0  0  0  0  0  0  0  0  0  0
   -0.7194   -4.8941    0.9211 F   0  0  0  0  0  0  0  0  0  0  0  0
    0.2699   -2.1373    1.2626 C   0  0  0  0  0  0  0  0  0  0  0  0
    0.1705   -0.7594    1.2223 C   0  0  0  0  0  0  0  0  0  0  0  0
    0.2573    0.1742    2.7141 S   0  0  1  0  0  0  0  0  0  0  0  0
   -0.8522    1.0620    2.6970 O   0  0  0  0  0  0  0  0  0  0  0  0
    0.4889   -0.7602    3.7593 O   0  0  0  0  0  0  0  0  0  0  0  0
    1.6139    1.1194    2.6227 N   0  0  0  0  0  0  0  0  0  0  0  0
    2.9882    0.6817    2.9282 C   0  0  1  0  0  0  0  0  0  0  0  0
    3.8987    1.6477    2.1297 C   0  0  1  0  0  0  0  0  0  0  0  0
    3.1228    2.9851    2.2586 C   0  0  1  0  0  0  0  0  0  0  0  0
    3.3533    3.4750    3.2046 H   0  0  0  0  0  0  0  0  0  0  0  0
    3.4262    3.8730    1.1282 N   0  0  1  0  0  0  0  0  0  0  0  0
    3.1808    3.4133    0.2642 H   0  0  0  0  0  0  0  0  0  0  0  0
    2.8945    4.7258    1.2183 H   0  0  0  0  0  0  0  0  0  0  0  0
    4.4116    4.0897    1.1258 H   0  0  0  0  0  0  0  0  0  0  0  0
    1.6482    2.5322    2.2174 C   0  0  1  0  0  0  0  0  0  0  0  0
    0.8595    1.8195   -0.2487 H   0  0  0  0  0  0  0  0  0  0  0  0
   -0.8237    1.6772   -0.8098 H   0  0  0  0  0  0  0  0  0  0  0  0
   -0.4700    1.7542    0.9330 H   0  0  0  0  0  0  0  0  0  0  0  0
   -0.2048   -0.3419   -2.1038 H   0  0  0  0  0  0  0  0  0  0  0  0
   -0.0213   -2.7965   -2.0327 H   0  0  0  0  0  0  0  0  0  0  0  0
    0.4033   -2.6417    2.2082 H   0  0  0  0  0  0  0  0  0  0  0  0
    3.1858    0.7701    3.9965 H   0  0  0  0  0  0  0  0  0  0  0  0
    3.1417   -0.3453    2.5968 H   0  0  0  0  0  0  0  0  0  0  0  0
    4.8852    1.7226    2.5872 H   0  0  0  0  0  0  0  0  0  0  0  0
    3.9758    1.3396    1.0870 H   0  0  0  0  0  0  0  0  0  0  0  0
    1.2546    2.6428    1.2070 H   0  0  0  0  0  0  0  0  0  0  0  0
    1.0581    3.1271    2.9145 H   0  0  0  0  0  0  0  0  0  0  0  0
  1  2  1  0
  1 25  1  6
  1 26  1  0
  1 27  1  0
  2 11  2  0
  2  3  1  0
  3  4  2  0
  3 28  1  0
  4  5  1  0
  4 29  1  0
  5  6  1  0
  5 10  2  0
  6  7  1  6
  6  8  1  0
  6  9  1  0
 10 11  1  0
 10 30  1  0
 11 12  1  0
 12 13  2  0
 12 14  2  0
 12 15  1  6
 15 24  1  0
 15 16  1  0
 16 17  1  0
 16 31  1  1
 16 32  1  0
 17 18  1  0
 17 33  1  1
 17 34  1  0
 18 19  1  1
 18 20  1  0
 18 24  1  0
 20 21  1  6
 20 22  1  0
 20 23  1  0
 24 35  1  6
 24 36  1  0
M  CHG  1  20   1
M  END
$$$$
