ZINC000002875367
     RDKit          3D

 51 53  0  0  0  0  0  0  0  0999 V2000
   -0.0173    1.4248    0.0099 C   0  0  1  0  0  0  0  0  0  0  0  0
    0.0021   -0.0041    0.0020 O   0  0  0  0  0  0  0  0  0  0  0  0
    0.6059   -0.6072   -1.0559 C   0  0  0  0  0  0  0  0  0  0  0  0
    1.1729    0.1601   -2.0622 C   0  0  0  0  0  0  0  0  0  0  0  0
    1.7867   -0.4553   -3.1365 C   0  0  0  0  0  0  0  0  0  0  0  0
    1.8356   -1.8349   -3.2094 C   0  0  0  0  0  0  0  0  0  0  0  0
    2.6191   -2.6158   -4.5809 S   0  0  1  0  0  0  0  0  0  0  0  0
    2.0552   -3.9165   -4.6780 O   0  0  0  0  0  0  0  0  0  0  0  0
    2.5932   -1.6759   -5.6464 O   0  0  0  0  0  0  0  0  0  0  0  0
    4.2124   -2.8255   -4.1811 N   0  0  0  0  0  0  0  0  0  0  0  0
    4.6441   -4.0556   -3.5126 C   0  0  1  0  0  0  0  0  0  0  0  0
    5.1532   -5.0516   -4.5565 C   0  0  1  0  0  0  0  0  0  0  0  0
    5.5972   -6.3169   -3.8689 C   0  0  0  0  0  0  0  0  0  0  0  0
    6.9040   -6.4469   -3.4374 C   0  0  0  0  0  0  0  0  0  0  0  0
    7.3114   -7.6076   -2.8066 C   0  0  0  0  0  0  0  0  0  0  0  0
    6.4118   -8.6380   -2.6071 C   0  0  0  0  0  0  0  0  0  0  0  0
    5.1048   -8.5077   -3.0378 C   0  0  0  0  0  0  0  0  0  0  0  0
    4.6963   -7.3453   -3.6647 C   0  0  0  0  0  0  0  0  0  0  0  0
    5.1902   -1.7809   -4.4958 C   0  0  1  0  0  0  0  0  0  0  0  0
    5.3785   -0.8907   -3.2945 C   0  0  0  0  0  0  0  0  0  0  0  0
    4.7570   -1.1074   -2.2758 O   0  0  0  0  0  0  0  0  0  0  0  0
    6.2374    0.1463   -3.3523 N   0  0  0  0  0  0  0  0  0  0  0  0
    6.4204    1.0118   -2.1845 C   0  0  1  0  0  0  0  0  0  0  0  0
    7.8512    1.4119   -1.8190 C   0  0  1  0  0  0  0  0  0  0  0  0
    6.9021    2.4424   -2.4339 C   0  0  1  0  0  0  0  0  0  0  0  0
    1.2712   -2.6032   -2.2077 C   0  0  0  0  0  0  0  0  0  0  0  0
    0.6611   -1.9928   -1.1281 C   0  0  0  0  0  0  0  0  0  0  0  0
   -0.0474   -2.9574    0.1295 Cl  0  0  0  0  0  0  0  0  0  0  0  0
    1.0053    1.8021    0.0021 H   0  0  0  0  0  0  0  0  0  0  0  0
   -0.5445    1.7859   -0.8732 H   0  0  0  0  0  0  0  0  0  0  0  0
   -0.5275    1.7763    0.9067 H   0  0  0  0  0  0  0  0  0  0  0  0
    1.1345    1.2380   -2.0065 H   0  0  0  0  0  0  0  0  0  0  0  0
    2.2283    0.1422   -3.9203 H   0  0  0  0  0  0  0  0  0  0  0  0
    5.4445   -3.8253   -2.8095 H   0  0  0  0  0  0  0  0  0  0  0  0
    3.8022   -4.4915   -2.9748 H   0  0  0  0  0  0  0  0  0  0  0  0
    4.3528   -5.2818   -5.2597 H   0  0  0  0  0  0  0  0  0  0  0  0
    5.9951   -4.6157   -5.0944 H   0  0  0  0  0  0  0  0  0  0  0  0
    7.6069   -5.6419   -3.5933 H   0  0  0  0  0  0  0  0  0  0  0  0
    8.3325   -7.7095   -2.4701 H   0  0  0  0  0  0  0  0  0  0  0  0
    6.7302   -9.5451   -2.1149 H   0  0  0  0  0  0  0  0  0  0  0  0
    4.4020   -9.3129   -2.8822 H   0  0  0  0  0  0  0  0  0  0  0  0
    3.6752   -7.2434   -4.0013 H   0  0  0  0  0  0  0  0  0  0  0  0
    6.1422   -2.2419   -4.7592 H   0  0  0  0  0  0  0  0  0  0  0  0
    4.8296   -1.1868   -5.3354 H   0  0  0  0  0  0  0  0  0  0  0  0
    6.7344    0.3196   -4.1670 H   0  0  0  0  0  0  0  0  0  0  0  0
    5.7174    0.8528   -1.3668 H   0  0  0  0  0  0  0  0  0  0  0  0
    8.0898    1.5161   -0.7605 H   0  0  0  0  0  0  0  0  0  0  0  0
    8.6563    1.0312   -2.4474 H   0  0  0  0  0  0  0  0  0  0  0  0
    7.0829    2.7396   -3.4669 H   0  0  0  0  0  0  0  0  0  0  0  0
    6.5163    3.2245   -1.7801 H   0  0  0  0  0  0  0  0  0  0  0  0
    1.3108   -3.6808   -2.2669 H   0  0  0  0  0  0  0  0  0  0  0  0
  1  2  1  0
  1 29  1  6
  1 30  1  0
  1 31  1  0
  2  3  1  0
  3 27  2  0
  3  4  1  0
  4  5  2  0
  4 32  1  0
  5  6  1  0
  5 33  1  0
  6  7  1  0
  6 26  2  0
  7  8  2  0
  7  9  2  0
  7 10  1  1
 10 11  1  0
 10 19  1  0
 11 12  1  0
 11 34  1  1
 11 35  1  0
 12 13  1  0
 12 36  1  6
 12 37  1  0
 13 18  2  0
 13 14  1  0
 14 15  2  0
 14 38  1  0
 15 16  1  0
 15 39  1  0
 16 17  2  0
 16 40  1  0
 17 18  1  0
 17 41  1  0
 18 42  1  0
 19 20  1  0
 19 43  1  6
 19 44  1  0
 20 21  2  0
 20 22  1  0
 22 23  1  0
 22 45  1  0
 23 25  1  0
 23 24  1  0
 23 46  1  1
 24 25  1  0
 24 47  1  1
 24 48  1  0
 25 49  1  6
 25 50  1  0
 26 27  1  0
 26 51  1  0
 27 28  1  0
M  END
$$$$
