ZINC000035397954
     RDKit          3D

 35 36  0  0  0  0  0  0  0  0999 V2000
   -0.0178    1.4648    0.0101 C   0  0  1  0  0  0  0  0  0  0  0  0
    0.0021   -0.0041    0.0020 N   0  0  0  0  0  0  0  0  0  0  0  0
   -1.3591   -0.5485   -0.0908 C   0  0  1  0  0  0  0  0  0  0  0  0
   -1.2864   -2.0676   -0.2787 C   0  0  1  0  0  0  0  0  0  0  0  0
   -0.4627   -2.6330    0.8007 N   0  0  0  0  0  0  0  0  0  0  0  0
   -1.0137   -3.8975    1.7170 S   0  0  1  0  0  0  0  0  0  0  0  0
   -0.3037   -3.8415    2.9466 O   0  0  0  0  0  0  0  0  0  0  0  0
   -2.4320   -3.8635    1.6363 O   0  0  0  0  0  0  0  0  0  0  0  0
   -0.5053   -5.3824    0.9161 C   0  0  0  0  0  0  0  0  0  0  0  0
    0.3919   -6.2303    1.5372 C   0  0  0  0  0  0  0  0  0  0  0  0
    0.7909   -7.3955    0.9088 C   0  0  0  0  0  0  0  0  0  0  0  0
    1.7694   -8.3197    1.5867 C   0  0  1  0  0  0  0  0  0  0  0  0
    1.0705   -9.2527    2.3601 F   0  0  0  0  0  0  0  0  0  0  0  0
    2.5257   -8.9893    0.6188 F   0  0  0  0  0  0  0  0  0  0  0  0
    2.6204   -7.5750    2.4104 F   0  0  0  0  0  0  0  0  0  0  0  0
    0.2925   -7.7131   -0.3406 C   0  0  0  0  0  0  0  0  0  0  0  0
   -0.6051   -6.8658   -0.9629 C   0  0  0  0  0  0  0  0  0  0  0  0
   -1.0088   -5.7025   -0.3324 C   0  0  0  0  0  0  0  0  0  0  0  0
   -2.1359   -4.6378   -1.1133 Cl  0  0  0  0  0  0  0  0  0  0  0  0
    0.8636   -2.0457    1.0444 C   0  0  1  0  0  0  0  0  0  0  0  0
    0.7062   -0.5275    1.1802 C   0  0  1  0  0  0  0  0  0  0  0  0
    1.0047    1.8421    0.0024 H   0  0  0  0  0  0  0  0  0  0  0  0
   -0.5450    1.8259   -0.8730 H   0  0  0  0  0  0  0  0  0  0  0  0
   -0.5280    1.8163    0.9069 H   0  0  0  0  0  0  0  0  0  0  0  0
   -1.9051   -0.3210    0.8248 H   0  0  0  0  0  0  0  0  0  0  0  0
   -1.8727   -0.1009   -0.9417 H   0  0  0  0  0  0  0  0  0  0  0  0
   -2.2899   -2.4906   -0.2334 H   0  0  0  0  0  0  0  0  0  0  0  0
   -0.8330   -2.2960   -1.2432 H   0  0  0  0  0  0  0  0  0  0  0  0
    0.7817   -5.9826    2.5134 H   0  0  0  0  0  0  0  0  0  0  0  0
    0.6045   -8.6234   -0.8309 H   0  0  0  0  0  0  0  0  0  0  0  0
   -0.9946   -7.1141   -1.9391 H   0  0  0  0  0  0  0  0  0  0  0  0
    1.2814   -2.4543    1.9645 H   0  0  0  0  0  0  0  0  0  0  0  0
    1.5237   -2.2720    0.2071 H   0  0  0  0  0  0  0  0  0  0  0  0
    1.6905   -0.0647    1.2511 H   0  0  0  0  0  0  0  0  0  0  0  0
    0.1315   -0.3003    2.0781 H   0  0  0  0  0  0  0  0  0  0  0  0
  1  2  1  0
  1 22  1  6
  1 23  1  0
  1 24  1  0
  2 21  1  0
  2  3  1  0
  3  4  1  0
  3 25  1  1
  3 26  1  0
  4  5  1  0
  4 27  1  6
  4 28  1  0
  6  5  1  6
  5 20  1  0
  6  7  2  0
  6  8  2  0
  6  9  1  0
  9 18  2  0
  9 10  1  0
 10 11  2  0
 10 29  1  0
 11 12  1  0
 11 16  1  0
 12 13  1  1
 12 14  1  0
 12 15  1  0
 16 17  2  0
 16 30  1  0
 17 18  1  0
 17 31  1  0
 18 19  1  0
 20 21  1  0
 20 32  1  1
 20 33  1  0
 21 34  1  1
 21 35  1  0
M  END
$$$$
