ZINC000014135587
     RDKit          3D

 55 56  0  0  1  0  0  0  0  0999 V2000
   -0.0187    1.5258    0.0104 C   0  0  1  0  0  0  0  0  0  0  0  0
    0.0021   -0.0041    0.0020 C   0  0  1  0  0  0  0  0  0  0  0  0
    0.7182   -0.4975   -1.2568 C   0  0  1  0  0  0  0  0  0  0  0  0
    0.7390   -2.0273   -1.2652 C   0  0  1  0  0  0  0  0  0  0  0  0
   -0.2789   -2.4050   -1.1679 H   0  0  0  0  0  0  0  0  0  0  0  0
    1.3429   -2.5219   -2.5810 C   0  0  1  0  0  0  0  0  0  0  0  0
    1.5485   -2.5109   -0.1440 N   0  0  0  0  0  0  0  0  0  0  0  0
    1.3281   -3.7388    0.3660 C   0  0  0  0  0  0  0  0  0  0  0  0
    0.4596   -4.4434   -0.1031 O   0  0  0  0  0  0  0  0  0  0  0  0
    2.1609   -4.2362    1.5193 C   0  0  1  0  0  0  0  0  0  0  0  0
    1.7293   -5.5872    1.8864 N   0  0  0  0  0  0  0  0  0  0  0  0
    2.2724   -6.7479    1.1764 C   0  0  1  0  0  0  0  0  0  0  0  0
    3.6021   -7.1584    1.8123 C   0  0  1  0  0  0  0  0  0  0  0  0
    4.1607   -8.3524    1.0820 C   0  0  0  0  0  0  0  0  0  0  0  0
    3.8293   -9.6304    1.4916 C   0  0  0  0  0  0  0  0  0  0  0  0
    4.3417  -10.7256    0.8217 C   0  0  0  0  0  0  0  0  0  0  0  0
    5.1853  -10.5428   -0.2581 C   0  0  0  0  0  0  0  0  0  0  0  0
    5.5161   -9.2648   -0.6682 C   0  0  0  0  0  0  0  0  0  0  0  0
    5.0002   -8.1696   -0.0009 C   0  0  0  0  0  0  0  0  0  0  0  0
    0.6275   -5.8024    3.1038 S   0  0  1  0  0  0  0  0  0  0  0  0
    0.9203   -7.0623    3.6920 O   0  0  0  0  0  0  0  0  0  0  0  0
    0.6016   -4.5877    3.8408 O   0  0  0  0  0  0  0  0  0  0  0  0
   -0.9575   -5.9612    2.3507 C   0  0  0  0  0  0  0  0  0  0  0  0
   -1.7294   -4.8375    2.1214 C   0  0  0  0  0  0  0  0  0  0  0  0
   -2.9726   -4.9615    1.5303 C   0  0  0  0  0  0  0  0  0  0  0  0
   -3.4444   -6.2104    1.1681 C   0  0  0  0  0  0  0  0  0  0  0  0
   -5.1450   -6.3807    0.3587 Br  0  0  0  0  0  0  0  0  0  0  0  0
   -2.6718   -7.3345    1.3977 C   0  0  0  0  0  0  0  0  0  0  0  0
   -1.4265   -7.2089    1.9841 C   0  0  0  0  0  0  0  0  0  0  0  0
    1.0039    1.9031    0.0027 H   0  0  0  0  0  0  0  0  0  0  0  0
   -0.5459    1.8868   -0.8726 H   0  0  0  0  0  0  0  0  0  0  0  0
   -0.5289    1.8773    0.9072 H   0  0  0  0  0  0  0  0  0  0  0  0
    0.5293   -0.3651    0.8851 H   0  0  0  0  0  0  0  0  0  0  0  0
   -1.0205   -0.3814    0.0098 H   0  0  0  0  0  0  0  0  0  0  0  0
    0.1910   -0.1364   -2.1398 H   0  0  0  0  0  0  0  0  0  0  0  0
    1.7408   -0.1202   -1.2645 H   0  0  0  0  0  0  0  0  0  0  0  0
    0.7406   -2.1622   -3.4152 H   0  0  0  0  0  0  0  0  0  0  0  0
    2.3608   -2.1442   -2.6783 H   0  0  0  0  0  0  0  0  0  0  0  0
    1.3577   -3.6118   -2.5870 H   0  0  0  0  0  0  0  0  0  0  0  0
    2.2431   -1.9473    0.2312 H   0  0  0  0  0  0  0  0  0  0  0  0
    3.2108   -4.2570    1.2271 H   0  0  0  0  0  0  0  0  0  0  0  0
    2.0345   -3.5700    2.3727 H   0  0  0  0  0  0  0  0  0  0  0  0
    1.5672   -7.5765    1.2419 H   0  0  0  0  0  0  0  0  0  0  0  0
    2.4344   -6.4905    0.1297 H   0  0  0  0  0  0  0  0  0  0  0  0
    4.3072   -6.3298    1.7469 H   0  0  0  0  0  0  0  0  0  0  0  0
    3.4401   -7.4159    2.8590 H   0  0  0  0  0  0  0  0  0  0  0  0
    3.1702   -9.7732    2.3351 H   0  0  0  0  0  0  0  0  0  0  0  0
    4.0833  -11.7241    1.1421 H   0  0  0  0  0  0  0  0  0  0  0  0
    5.5863  -11.3985   -0.7810 H   0  0  0  0  0  0  0  0  0  0  0  0
    6.1754   -9.1220   -1.5116 H   0  0  0  0  0  0  0  0  0  0  0  0
    5.2586   -7.1711   -0.3214 H   0  0  0  0  0  0  0  0  0  0  0  0
   -1.3611   -3.8625    2.4046 H   0  0  0  0  0  0  0  0  0  0  0  0
   -3.5757   -4.0836    1.3516 H   0  0  0  0  0  0  0  0  0  0  0  0
   -3.0398   -8.3097    1.1150 H   0  0  0  0  0  0  0  0  0  0  0  0
   -0.8231   -8.0865    2.1634 H   0  0  0  0  0  0  0  0  0  0  0  0
  1  2  1  0
  1 30  1  6
  1 31  1  0
  1 32  1  0
  2  3  1  0
  2 33  1  1
  2 34  1  0
  3  4  1  0
  3 35  1  6
  3 36  1  0
  4  5  1  1
  4  6  1  0
  4  7  1  0
  6 37  1  6
  6 38  1  0
  6 39  1  0
  7  8  1  0
  7 40  1  0
  8  9  2  0
  8 10  1  0
 10 11  1  0
 10 41  1  6
 10 42  1  0
 11 12  1  0
 20 11  1  6
 12 13  1  0
 12 43  1  6
 12 44  1  0
 13 14  1  0
 13 45  1  1
 13 46  1  0
 14 19  2  0
 14 15  1  0
 15 16  2  0
 15 47  1  0
 16 17  1  0
 16 48  1  0
 17 18  2  0
 17 49  1  0
 18 19  1  0
 18 50  1  0
 19 51  1  0
 20 21  2  0
 20 22  2  0
 20 23  1  0
 23 29  2  0
 23 24  1  0
 24 25  2  0
 24 52  1  0
 25 26  1  0
 25 53  1  0
 26 27  1  0
 26 28  2  0
 28 29  1  0
 28 54  1  0
 29 55  1  0
M  END
$$$$
