ZINC000022227429
     RDKit          3D

 58 60  0  0  0  0  0  0  0  0999 V2000
   -0.0187    1.5258    0.0104 C   0  0  1  0  0  0  0  0  0  0  0  0
    0.0021   -0.0041    0.0020 C   0  0  1  0  0  0  0  0  0  0  0  0
   -1.3723   -0.5112    0.0124 N   0  0  0  0  0  0  0  0  0  0  0  0
   -2.1099   -0.6542   -1.2453 C   0  0  1  0  0  0  0  0  0  0  0  0
   -1.7727   -2.0031   -1.8836 C   0  0  1  0  0  0  0  0  0  0  0  0
   -2.0922   -0.9227    1.4458 S   0  0  1  0  0  0  0  0  0  0  0  0
   -3.1196   -1.8512    1.1269 O   0  0  0  0  0  0  0  0  0  0  0  0
   -1.0393   -1.2108    2.3555 O   0  0  0  0  0  0  0  0  0  0  0  0
   -2.8978    0.5199    2.0580 C   0  0  0  0  0  0  0  0  0  0  0  0
   -2.2156    1.3954    2.8820 C   0  0  0  0  0  0  0  0  0  0  0  0
   -2.8476    2.5271    3.3622 C   0  0  0  0  0  0  0  0  0  0  0  0
   -4.1616    2.7836    3.0181 C   0  0  0  0  0  0  0  0  0  0  0  0
   -4.8508    4.0171    3.5421 C   0  0  1  0  0  0  0  0  0  0  0  0
   -4.6371    5.1747    2.5647 C   0  0  1  0  0  0  0  0  0  0  0  0
   -5.3071    6.3739    3.0740 N   0  0  0  0  0  0  0  0  0  0  0  0
   -5.2536    7.5243    2.3740 C   0  0  0  0  0  0  0  0  0  0  0  0
   -4.6509    7.5669    1.3224 O   0  0  0  0  0  0  0  0  0  0  0  0
   -5.9428    8.7579    2.8979 C   0  0  1  0  0  0  0  0  0  0  0  0
   -5.7323    9.8980    1.9352 C   0  0  0  0  0  0  0  0  0  0  0  0
   -4.6346   10.7259    2.0758 C   0  0  0  0  0  0  0  0  0  0  0  0
   -4.4393   11.7743    1.1961 C   0  0  0  0  0  0  0  0  0  0  0  0
   -5.3445   11.9977    0.1697 C   0  0  0  0  0  0  0  0  0  0  0  0
   -5.1435   13.0387   -0.6837 O   0  0  0  0  0  0  0  0  0  0  0  0
   -5.8663   13.0067   -1.9192 C   0  0  1  0  0  0  0  0  0  0  0  0
   -7.3257   12.6435   -1.6132 C   0  0  1  0  0  0  0  0  0  0  0  0
   -7.3446   11.3609   -0.9773 O   0  0  0  0  0  0  0  0  0  0  0  0
   -6.4465   11.1626    0.0261 C   0  0  0  0  0  0  0  0  0  0  0  0
   -6.6345   10.1106    0.9097 C   0  0  0  0  0  0  0  0  0  0  0  0
   -4.8434    1.9088    2.1930 C   0  0  0  0  0  0  0  0  0  0  0  0
   -4.2102    0.7790    1.7096 C   0  0  0  0  0  0  0  0  0  0  0  0
    1.0039    1.9031    0.0027 H   0  0  0  0  0  0  0  0  0  0  0  0
   -0.5459    1.8868   -0.8726 H   0  0  0  0  0  0  0  0  0  0  0  0
   -0.5289    1.8773    0.9072 H   0  0  0  0  0  0  0  0  0  0  0  0
    0.5123   -0.3556   -0.8948 H   0  0  0  0  0  0  0  0  0  0  0  0
    0.5293   -0.3651    0.8851 H   0  0  0  0  0  0  0  0  0  0  0  0
   -3.1804   -0.6037   -1.0465 H   0  0  0  0  0  0  0  0  0  0  0  0
   -1.8283    0.1500   -1.9251 H   0  0  0  0  0  0  0  0  0  0  0  0
   -2.3215   -2.1096   -2.8194 H   0  0  0  0  0  0  0  0  0  0  0  0
   -0.7022   -2.0536   -2.0825 H   0  0  0  0  0  0  0  0  0  0  0  0
   -2.0544   -2.8073   -1.2038 H   0  0  0  0  0  0  0  0  0  0  0  0
   -1.1890    1.1950    3.1509 H   0  0  0  0  0  0  0  0  0  0  0  0
   -2.3149    3.2108    4.0066 H   0  0  0  0  0  0  0  0  0  0  0  0
   -5.9180    3.8210    3.6452 H   0  0  0  0  0  0  0  0  0  0  0  0
   -4.4342    4.2808    4.5142 H   0  0  0  0  0  0  0  0  0  0  0  0
   -3.5699    5.3709    2.4615 H   0  0  0  0  0  0  0  0  0  0  0  0
   -5.0537    4.9110    1.5925 H   0  0  0  0  0  0  0  0  0  0  0  0
   -5.7891    6.3398    3.9151 H   0  0  0  0  0  0  0  0  0  0  0  0
   -7.0100    8.5617    3.0011 H   0  0  0  0  0  0  0  0  0  0  0  0
   -5.5262    9.0216    3.8701 H   0  0  0  0  0  0  0  0  0  0  0  0
   -3.9284   10.5538    2.8746 H   0  0  0  0  0  0  0  0  0  0  0  0
   -3.5810   12.4201    1.3086 H   0  0  0  0  0  0  0  0  0  0  0  0
   -5.8234   13.9861   -2.3956 H   0  0  0  0  0  0  0  0  0  0  0  0
   -5.4317   12.2566   -2.5800 H   0  0  0  0  0  0  0  0  0  0  0  0
   -7.7585   13.3903   -0.9476 H   0  0  0  0  0  0  0  0  0  0  0  0
   -7.8965   12.6023   -2.5409 H   0  0  0  0  0  0  0  0  0  0  0  0
   -7.4889    9.4593    0.7990 H   0  0  0  0  0  0  0  0  0  0  0  0
   -5.8699    2.1094    1.9238 H   0  0  0  0  0  0  0  0  0  0  0  0
   -4.7428    0.0956    1.0650 H   0  0  0  0  0  0  0  0  0  0  0  0
  1  2  1  0
  1 31  1  6
  1 32  1  0
  1 33  1  0
  2  3  1  0
  2 34  1  6
  2 35  1  0
  3  4  1  0
  6  3  1  6
  4  5  1  0
  4 36  1  1
  4 37  1  0
  5 38  1  6
  5 39  1  0
  5 40  1  0
  6  7  2  0
  6  8  2  0
  6  9  1  0
  9 30  2  0
  9 10  1  0
 10 11  2  0
 10 41  1  0
 11 12  1  0
 11 42  1  0
 12 13  1  0
 12 29  2  0
 13 14  1  0
 13 43  1  1
 13 44  1  0
 14 15  1  0
 14 45  1  6
 14 46  1  0
 15 16  1  0
 15 47  1  0
 16 17  2  0
 16 18  1  0
 18 19  1  0
 18 48  1  1
 18 49  1  0
 19 28  2  0
 19 20  1  0
 20 21  2  0
 20 50  1  0
 21 22  1  0
 21 51  1  0
 22 27  2  0
 22 23  1  0
 23 24  1  0
 24 25  1  0
 24 52  1  6
 24 53  1  0
 25 26  1  0
 25 54  1  1
 25 55  1  0
 26 27  1  0
 27 28  1  0
 28 56  1  0
 29 30  1  0
 29 57  1  0
 30 58  1  0
M  END
$$$$
