ZINC000028208295
     RDKit          3D

 45 45  0  0  1  0  0  0  0  0999 V2000
   -0.0187    1.5258    0.0104 C   0  0  1  0  0  0  0  0  0  0  0  0
    0.0021   -0.0041    0.0020 C   0  0  1  0  0  0  0  0  0  0  0  0
    0.7182   -0.4975   -1.2568 C   0  0  2  0  0  0  0  0  0  0  0  0
    0.2444   -0.0644   -2.1377 H   0  0  0  0  0  0  0  0  0  0  0  0
    0.6303   -2.0233   -1.3286 C   0  0  1  0  0  0  0  0  0  0  0  0
    2.1249   -0.0911   -1.2094 N   0  0  0  0  0  0  0  0  0  0  0  0
    2.8241    0.0515   -2.3527 C   0  0  0  0  0  0  0  0  0  0  0  0
    2.2887   -0.1566   -3.4209 O   0  0  0  0  0  0  0  0  0  0  0  0
    4.2711    0.4696   -2.3039 C   0  0  1  0  0  0  0  0  0  0  0  0
    4.8252    0.5563   -3.7275 C   0  0  1  0  0  0  0  0  0  0  0  0
    6.2722    0.9744   -3.6787 C   0  0  0  0  0  0  0  0  0  0  0  0
    6.6055    2.3156   -3.7091 C   0  0  0  0  0  0  0  0  0  0  0  0
    7.9329    2.6991   -3.6643 C   0  0  0  0  0  0  0  0  0  0  0  0
    8.9269    1.7414   -3.5887 C   0  0  0  0  0  0  0  0  0  0  0  0
   10.6187    2.2302   -3.5322 S   0  0  1  0  0  0  0  0  0  0  0  0
   11.3723    1.1231   -4.0072 O   0  0  0  0  0  0  0  0  0  0  0  0
   10.6827    3.5229   -4.1188 O   0  0  0  0  0  0  0  0  0  0  0  0
   11.0212    2.4201   -1.9371 N   0  0  0  0  0  0  0  0  0  0  0  0
   11.5492    1.2859   -1.1749 C   0  0  1  0  0  0  0  0  0  0  0  0
   10.8491    3.7222   -1.2883 C   0  0  1  0  0  0  0  0  0  0  0  0
    8.5935    0.4002   -3.5569 C   0  0  0  0  0  0  0  0  0  0  0  0
    7.2659    0.0169   -3.5978 C   0  0  0  0  0  0  0  0  0  0  0  0
    1.0039    1.9031    0.0027 H   0  0  0  0  0  0  0  0  0  0  0  0
   -0.5459    1.8868   -0.8726 H   0  0  0  0  0  0  0  0  0  0  0  0
   -0.5289    1.8773    0.9072 H   0  0  0  0  0  0  0  0  0  0  0  0
    0.5293   -0.3651    0.8851 H   0  0  0  0  0  0  0  0  0  0  0  0
   -1.0205   -0.3814    0.0098 H   0  0  0  0  0  0  0  0  0  0  0  0
    1.1041   -2.4564   -0.4477 H   0  0  0  0  0  0  0  0  0  0  0  0
   -0.4163   -2.3257   -1.3639 H   0  0  0  0  0  0  0  0  0  0  0  0
    1.1405   -2.3748   -2.2254 H   0  0  0  0  0  0  0  0  0  0  0  0
    2.5531    0.0754   -0.3551 H   0  0  0  0  0  0  0  0  0  0  0  0
    4.3517    1.4443   -1.8227 H   0  0  0  0  0  0  0  0  0  0  0  0
    4.8424   -0.2644   -1.7357 H   0  0  0  0  0  0  0  0  0  0  0  0
    4.7446   -0.4184   -4.2087 H   0  0  0  0  0  0  0  0  0  0  0  0
    4.2539    1.2904   -4.2956 H   0  0  0  0  0  0  0  0  0  0  0  0
    5.8290    3.0638   -3.7682 H   0  0  0  0  0  0  0  0  0  0  0  0
    8.1933    3.7469   -3.6888 H   0  0  0  0  0  0  0  0  0  0  0  0
   12.6359    1.2665   -1.2581 H   0  0  0  0  0  0  0  0  0  0  0  0
   11.2669    1.3892   -0.1272 H   0  0  0  0  0  0  0  0  0  0  0  0
   11.1378    0.3580   -1.5722 H   0  0  0  0  0  0  0  0  0  0  0  0
   10.4484    4.4365   -2.0075 H   0  0  0  0  0  0  0  0  0  0  0  0
   10.1578    3.6226   -0.4514 H   0  0  0  0  0  0  0  0  0  0  0  0
   11.8131    4.0764   -0.9230 H   0  0  0  0  0  0  0  0  0  0  0  0
    9.3700   -0.3480   -3.4974 H   0  0  0  0  0  0  0  0  0  0  0  0
    7.0055   -1.0310   -3.5729 H   0  0  0  0  0  0  0  0  0  0  0  0
  1  2  1  0
  1 23  1  6
  1 24  1  0
  1 25  1  0
  2  3  1  0
  2 26  1  1
  2 27  1  0
  3  4  1  6
  3  5  1  0
  3  6  1  0
  5 28  1  1
  5 29  1  0
  5 30  1  0
  6  7  1  0
  6 31  1  0
  7  8  2  0
  7  9  1  0
  9 10  1  0
  9 32  1  1
  9 33  1  0
 10 11  1  0
 10 34  1  6
 10 35  1  0
 11 22  2  0
 11 12  1  0
 12 13  2  0
 12 36  1  0
 13 14  1  0
 13 37  1  0
 14 15  1  0
 14 21  2  0
 15 16  2  0
 15 17  2  0
 15 18  1  1
 18 19  1  0
 18 20  1  0
 19 38  1  1
 19 39  1  0
 19 40  1  0
 20 41  1  6
 20 42  1  0
 20 43  1  0
 21 22  1  0
 21 44  1  0
 22 45  1  0
M  END
$$$$
