ZINC000014980934
     RDKit          3D

 47 49  0  0  1  0  0  0  0  0999 V2000
   -0.0184    1.5028    0.0103 C   0  0  1  0  0  0  0  0  0  0  0  0
    0.0021   -0.0041    0.0020 C   0  0  0  0  0  0  0  0  0  0  0  0
    0.0084   -0.7781   -1.0446 N   0  0  0  0  0  0  0  0  0  0  0  0
    0.0260   -1.9466   -0.7340 O   0  0  0  0  0  0  0  0  0  0  0  0
    0.0337   -2.1026    0.5973 C   0  0  0  0  0  0  0  0  0  0  0  0
    0.0555   -3.4063    1.3528 C   0  0  1  0  0  0  0  0  0  0  0  0
    0.0244   -0.8570    1.1293 C   0  0  0  0  0  0  0  0  0  0  0  0
    0.0281   -0.4046    2.8322 S   0  0  1  0  0  0  0  0  0  0  0  0
   -0.5285    0.9011    2.9018 O   0  0  0  0  0  0  0  0  0  0  0  0
   -0.5024   -1.5145    3.5435 O   0  0  0  0  0  0  0  0  0  0  0  0
    1.6108   -0.2636    3.2985 N   0  0  0  0  0  0  0  0  0  0  0  0
    2.3413   -1.4232    3.8282 C   0  0  1  0  0  0  0  0  0  0  0  0
    3.6321   -1.6026    3.0230 C   0  0  1  0  0  0  0  0  0  0  0  0
    4.4277   -0.2954    3.0441 C   0  0  1  0  0  0  0  0  0  0  0  0
    3.6025    0.8165    2.3923 C   0  0  2  0  0  0  0  0  0  0  0  0
    3.3562    0.5344    1.3687 H   0  0  0  0  0  0  0  0  0  0  0  0
    4.3997    2.0954    2.3838 C   0  0  0  0  0  0  0  0  0  0  0  0
    4.3224    2.8642    3.3182 O   0  0  0  0  0  0  0  0  0  0  0  0
    5.2719    2.4111    1.2413 C   0  0  0  0  0  0  0  0  0  0  0  0
    5.3594    1.5296    0.1591 C   0  0  0  0  0  0  0  0  0  0  0  0
    6.1789    1.8325   -0.9076 C   0  0  0  0  0  0  0  0  0  0  0  0
    6.9142    3.0050   -0.9090 C   0  0  0  0  0  0  0  0  0  0  0  0
    7.8074    3.3283   -2.0789 C   0  0  1  0  0  0  0  0  0  0  0  0
    7.0842    4.0545   -3.0311 F   0  0  0  0  0  0  0  0  0  0  0  0
    8.8950    4.0903   -1.6386 F   0  0  0  0  0  0  0  0  0  0  0  0
    8.2723    2.1402   -2.6529 F   0  0  0  0  0  0  0  0  0  0  0  0
    6.8331    3.8825    0.1583 C   0  0  0  0  0  0  0  0  0  0  0  0
    6.0133    3.5969    1.2296 C   0  0  0  0  0  0  0  0  0  0  0  0
    2.3131    1.0219    3.1847 C   0  0  1  0  0  0  0  0  0  0  0  0
    1.0042    1.8801    0.0026 H   0  0  0  0  0  0  0  0  0  0  0  0
   -0.5455    1.8639   -0.8728 H   0  0  0  0  0  0  0  0  0  0  0  0
   -0.5286    1.8543    0.9071 H   0  0  0  0  0  0  0  0  0  0  0  0
    0.0639   -4.2359    0.6459 H   0  0  0  0  0  0  0  0  0  0  0  0
    0.9490   -3.4505    1.9755 H   0  0  0  0  0  0  0  0  0  0  0  0
   -0.8308   -3.4755    1.9836 H   0  0  0  0  0  0  0  0  0  0  0  0
    2.5854   -1.2533    4.8769 H   0  0  0  0  0  0  0  0  0  0  0  0
    1.7249   -2.3172    3.7346 H   0  0  0  0  0  0  0  0  0  0  0  0
    4.2296   -2.3993    3.4662 H   0  0  0  0  0  0  0  0  0  0  0  0
    3.3855   -1.8619    1.9934 H   0  0  0  0  0  0  0  0  0  0  0  0
    4.6526   -0.0238    4.0755 H   0  0  0  0  0  0  0  0  0  0  0  0
    5.3584   -0.4278    2.4925 H   0  0  0  0  0  0  0  0  0  0  0  0
    4.7868    0.6139    0.1590 H   0  0  0  0  0  0  0  0  0  0  0  0
    6.2475    1.1528   -1.7441 H   0  0  0  0  0  0  0  0  0  0  0  0
    7.4099    4.7955    0.1499 H   0  0  0  0  0  0  0  0  0  0  0  0
    5.9510    4.2825    2.0617 H   0  0  0  0  0  0  0  0  0  0  0  0
    1.6781    1.7423    2.6690 H   0  0  0  0  0  0  0  0  0  0  0  0
    2.5521    1.3907    4.1822 H   0  0  0  0  0  0  0  0  0  0  0  0
  1  2  1  0
  1 30  1  6
  1 31  1  0
  1 32  1  0
  2  7  1  0
  2  3  2  0
  3  4  1  0
  4  5  1  0
  5  6  1  0
  5  7  2  0
  6 33  1  6
  6 34  1  0
  6 35  1  0
  7  8  1  0
  8  9  2  0
  8 10  2  0
  8 11  1  1
 11 29  1  0
 11 12  1  0
 12 13  1  0
 12 36  1  1
 12 37  1  0
 13 14  1  0
 13 38  1  1
 13 39  1  0
 14 15  1  0
 14 40  1  1
 14 41  1  0
 15 16  1  6
 15 17  1  0
 15 29  1  0
 17 18  2  0
 17 19  1  0
 19 28  2  0
 19 20  1  0
 20 21  2  0
 20 42  1  0
 21 22  1  0
 21 43  1  0
 22 23  1  0
 22 27  2  0
 23 24  1  6
 23 25  1  0
 23 26  1  0
 27 28  1  0
 27 44  1  0
 28 45  1  0
 29 46  1  6
 29 47  1  0
M  END
$$$$
