ZINC000005554948
     RDKit          3D

 56 57  0  0  1  0  0  0  0  0999 V2000
   -0.2414    1.7506   -0.6487 C   0  0  1  0  0  0  0  0  0  0  0  0
   -0.1409    0.2370   -0.4493 C   0  0  1  0  0  0  0  0  0  0  0  0
   -1.5465   -0.3574   -0.3402 C   0  0  1  0  0  0  0  0  0  0  0  0
   -1.4504   -1.8067   -0.1493 N   0  0  0  0  0  0  0  0  0  0  0  0
   -1.2652   -2.3577    1.1955 C   0  0  1  0  0  0  0  0  0  0  0  0
   -2.6266   -2.5059    1.8778 C   0  0  1  0  0  0  0  0  0  0  0  0
   -2.4333   -3.0813    3.2822 C   0  0  1  0  0  0  0  0  0  0  0  0
   -1.5509   -2.8222   -1.4535 S   0  0  1  0  0  0  0  0  0  0  0  0
   -1.9768   -4.0809   -0.9501 O   0  0  0  0  0  0  0  0  0  0  0  0
   -2.2539   -2.1106   -2.4628 O   0  0  0  0  0  0  0  0  0  0  0  0
    0.0870   -3.0569   -2.0593 C   0  0  0  0  0  0  0  0  0  0  0  0
    0.5975   -2.2007   -3.0176 C   0  0  0  0  0  0  0  0  0  0  0  0
    1.8808   -2.3823   -3.4948 C   0  0  0  0  0  0  0  0  0  0  0  0
    2.6587   -3.4258   -3.0108 C   0  0  0  0  0  0  0  0  0  0  0  0
    3.9597   -3.6122   -3.4919 N   0  0  0  0  0  0  0  0  0  0  0  0
    4.7049   -2.5477   -3.8495 C   0  0  0  0  0  0  0  0  0  0  0  0
    4.2853   -1.4225   -3.6643 O   0  0  0  0  0  0  0  0  0  0  0  0
    5.9145   -2.7311   -4.4119 O   0  0  0  0  0  0  0  0  0  0  0  0
    6.6618   -1.5392   -4.7716 C   0  0  1  0  0  0  0  0  0  0  0  0
    5.9676   -0.7370   -5.0224 H   0  0  0  0  0  0  0  0  0  0  0  0
    7.5339   -1.1083   -3.5907 C   0  0  1  0  0  0  0  0  0  0  0  0
    6.6395   -0.6882   -2.4226 C   0  0  1  0  0  0  0  0  0  0  0  0
    7.5379   -1.8356   -5.9614 C   0  0  0  0  0  0  0  0  0  0  0  0
    7.8412   -0.9742   -6.9490 C   0  0  0  0  0  0  0  0  0  0  0  0
    8.6834   -1.6647   -7.8505 C   0  0  0  0  0  0  0  0  0  0  0  0
    8.8445   -2.9067   -7.3599 C   0  0  0  0  0  0  0  0  0  0  0  0
    8.1530   -3.0027   -6.2125 O   0  0  0  0  0  0  0  0  0  0  0  0
    2.1433   -4.2836   -2.0481 C   0  0  0  0  0  0  0  0  0  0  0  0
    0.8611   -4.0935   -1.5712 C   0  0  0  0  0  0  0  0  0  0  0  0
    0.7600    2.1741   -0.7264 H   0  0  0  0  0  0  0  0  0  0  0  0
   -0.7966    1.9606   -1.5628 H   0  0  0  0  0  0  0  0  0  0  0  0
   -0.7590    2.1955    0.2012 H   0  0  0  0  0  0  0  0  0  0  0  0
    0.3767   -0.2079   -1.2991 H   0  0  0  0  0  0  0  0  0  0  0  0
    0.4143    0.0270    0.4649 H   0  0  0  0  0  0  0  0  0  0  0  0
   -2.0642    0.0875    0.5097 H   0  0  0  0  0  0  0  0  0  0  0  0
   -2.1018   -0.1474   -1.2543 H   0  0  0  0  0  0  0  0  0  0  0  0
   -0.7859   -3.3341    1.1253 H   0  0  0  0  0  0  0  0  0  0  0  0
   -0.6370   -1.6857    1.7802 H   0  0  0  0  0  0  0  0  0  0  0  0
   -3.1060   -1.5295    1.9480 H   0  0  0  0  0  0  0  0  0  0  0  0
   -3.2549   -3.1779    1.2931 H   0  0  0  0  0  0  0  0  0  0  0  0
   -1.8051   -2.4093    3.8669 H   0  0  0  0  0  0  0  0  0  0  0  0
   -3.4032   -3.1869    3.7683 H   0  0  0  0  0  0  0  0  0  0  0  0
   -1.9539   -4.0577    3.2120 H   0  0  0  0  0  0  0  0  0  0  0  0
   -0.0081   -1.3893   -3.3936 H   0  0  0  0  0  0  0  0  0  0  0  0
    2.2787   -1.7137   -4.2438 H   0  0  0  0  0  0  0  0  0  0  0  0
    4.3250   -4.5076   -3.5680 H   0  0  0  0  0  0  0  0  0  0  0  0
    8.1661   -1.9412   -3.2829 H   0  0  0  0  0  0  0  0  0  0  0  0
    8.1604   -0.2678   -3.8893 H   0  0  0  0  0  0  0  0  0  0  0  0
    6.0131   -1.5287   -2.1240 H   0  0  0  0  0  0  0  0  0  0  0  0
    7.2609   -0.3812   -1.5813 H   0  0  0  0  0  0  0  0  0  0  0  0
    6.0074    0.1448   -2.7304 H   0  0  0  0  0  0  0  0  0  0  0  0
    7.5053    0.0485   -7.0368 H   0  0  0  0  0  0  0  0  0  0  0  0
    9.1145   -1.2706   -8.7590 H   0  0  0  0  0  0  0  0  0  0  0  0
    9.4332   -3.6923   -7.8101 H   0  0  0  0  0  0  0  0  0  0  0  0
    2.7459   -5.0961   -1.6697 H   0  0  0  0  0  0  0  0  0  0  0  0
    0.4598   -4.7601   -0.8222 H   0  0  0  0  0  0  0  0  0  0  0  0
  1  2  1  0
  1 30  1  6
  1 31  1  0
  1 32  1  0
  2  3  1  0
  2 33  1  6
  2 34  1  0
  3  4  1  0
  3 35  1  1
  3 36  1  0
  4  5  1  0
  8  4  1  1
  5  6  1  0
  5 37  1  6
  5 38  1  0
  6  7  1  0
  6 39  1  1
  6 40  1  0
  7 41  1  1
  7 42  1  0
  7 43  1  0
  8  9  2  0
  8 10  2  0
  8 11  1  0
 11 29  2  0
 11 12  1  0
 12 13  2  0
 12 44  1  0
 13 14  1  0
 13 45  1  0
 14 15  1  0
 14 28  2  0
 15 16  1  0
 15 46  1  0
 16 17  2  0
 16 18  1  0
 18 19  1  0
 19 20  1  6
 19 21  1  0
 19 23  1  0
 21 22  1  0
 21 47  1  1
 21 48  1  0
 22 49  1  1
 22 50  1  0
 22 51  1  0
 23 27  1  0
 23 24  2  0
 24 25  1  0
 24 52  1  0
 25 26  2  0
 25 53  1  0
 26 27  1  0
 26 54  1  0
 28 29  1  0
 28 55  1  0
 29 56  1  0
M  END
$$$$
