ZINC000016084488
     RDKit          3D

 54 56  0  0  1  0  0  0  0  0999 V2000
   -0.5918    1.8342    0.8664 C   0  0  1  0  0  0  0  0  0  0  0  0
   -0.4107    0.4176    0.6042 O   0  0  0  0  0  0  0  0  0  0  0  0
   -1.5149   -0.3454    0.5891 C   0  0  0  0  0  0  0  0  0  0  0  0
   -2.6044    0.1663    0.6949 O   0  0  0  0  0  0  0  0  0  0  0  0
   -1.3959   -1.8403    0.4402 C   0  0  1  0  0  0  0  0  0  0  0  0
   -2.7918   -2.4523    0.3068 C   0  0  2  0  0  0  0  0  0  0  0  0
   -3.4537   -2.0121    1.0526 H   0  0  0  0  0  0  0  0  0  0  0  0
   -2.7096   -3.9424    0.5259 C   0  0  0  0  0  0  0  0  0  0  0  0
   -2.0107   -4.3940    1.6374 C   0  0  0  0  0  0  0  0  0  0  0  0
   -1.9072   -5.7478    1.9002 C   0  0  0  0  0  0  0  0  0  0  0  0
   -1.2196   -6.1829    2.9898 O   0  0  0  0  0  0  0  0  0  0  0  0
   -0.6269   -5.1853    3.8238 C   0  0  1  0  0  0  0  0  0  0  0  0
   -2.5110   -6.6619    1.0420 C   0  0  0  0  0  0  0  0  0  0  0  0
   -2.4210   -7.9958    1.2914 O   0  0  0  0  0  0  0  0  0  0  0  0
   -3.0659   -8.8736    0.3665 C   0  0  1  0  0  0  0  0  0  0  0  0
   -3.2023   -6.2073   -0.0655 C   0  0  0  0  0  0  0  0  0  0  0  0
   -3.2991   -4.8463   -0.3300 C   0  0  0  0  0  0  0  0  0  0  0  0
   -4.0453   -4.4297   -1.5704 C   0  0  1  0  0  0  0  0  0  0  0  0
   -4.4791   -2.9677   -1.4791 C   0  0  1  0  0  0  0  0  0  0  0  0
   -3.3182   -2.1792   -1.0347 N   0  0  0  0  0  0  0  0  0  0  0  0
   -2.6346   -1.0284   -2.0097 S   0  0  1  0  0  0  0  0  0  0  0  0
   -3.5903    0.0166   -2.1279 O   0  0  0  0  0  0  0  0  0  0  0  0
   -1.3150   -0.8234   -1.5242 O   0  0  0  0  0  0  0  0  0  0  0  0
   -2.4699   -1.7358   -3.6150 C   0  0  0  0  0  0  0  0  0  0  0  0
   -1.3667   -2.5116   -3.9185 C   0  0  0  0  0  0  0  0  0  0  0  0
   -1.2375   -3.0666   -5.1780 C   0  0  0  0  0  0  0  0  0  0  0  0
   -2.2115   -2.8462   -6.1337 C   0  0  0  0  0  0  0  0  0  0  0  0
   -2.0704   -3.4509   -7.5069 C   0  0  1  0  0  0  0  0  0  0  0  0
   -2.6705   -4.7145   -7.5239 F   0  0  0  0  0  0  0  0  0  0  0  0
   -2.6960   -2.6248   -8.4468 F   0  0  0  0  0  0  0  0  0  0  0  0
   -0.7136   -3.5746   -7.8247 F   0  0  0  0  0  0  0  0  0  0  0  0
   -3.3153   -2.0715   -5.8298 C   0  0  0  0  0  0  0  0  0  0  0  0
   -3.4465   -1.5197   -4.5692 C   0  0  0  0  0  0  0  0  0  0  0  0
    0.3824    2.3179    0.9377 H   0  0  0  0  0  0  0  0  0  0  0  0
   -1.1623    2.2840    0.0539 H   0  0  0  0  0  0  0  0  0  0  0  0
   -1.1315    1.9639    1.8045 H   0  0  0  0  0  0  0  0  0  0  0  0
   -0.8113   -2.0714   -0.4502 H   0  0  0  0  0  0  0  0  0  0  0  0
   -0.9000   -2.2546    1.3181 H   0  0  0  0  0  0  0  0  0  0  0  0
   -1.5438   -3.6821    2.3020 H   0  0  0  0  0  0  0  0  0  0  0  0
   -0.1102   -5.6662    4.6544 H   0  0  0  0  0  0  0  0  0  0  0  0
    0.0860   -4.6016    3.2415 H   0  0  0  0  0  0  0  0  0  0  0  0
   -1.4044   -4.5272    4.2117 H   0  0  0  0  0  0  0  0  0  0  0  0
   -4.1328   -8.6522    0.3389 H   0  0  0  0  0  0  0  0  0  0  0  0
   -2.6396   -8.7319   -0.6266 H   0  0  0  0  0  0  0  0  0  0  0  0
   -2.9172   -9.9064    0.6817 H   0  0  0  0  0  0  0  0  0  0  0  0
   -3.6711   -6.9165   -0.7317 H   0  0  0  0  0  0  0  0  0  0  0  0
   -3.3982   -4.5581   -2.4381 H   0  0  0  0  0  0  0  0  0  0  0  0
   -4.9278   -5.0589   -1.6862 H   0  0  0  0  0  0  0  0  0  0  0  0
   -4.8090   -2.6191   -2.4577 H   0  0  0  0  0  0  0  0  0  0  0  0
   -5.2908   -2.8682   -0.7585 H   0  0  0  0  0  0  0  0  0  0  0  0
   -0.6057   -2.6838   -3.1718 H   0  0  0  0  0  0  0  0  0  0  0  0
   -0.3753   -3.6722   -5.4153 H   0  0  0  0  0  0  0  0  0  0  0  0
   -4.0765   -1.8996   -6.5764 H   0  0  0  0  0  0  0  0  0  0  0  0
   -4.3089   -0.9144   -4.3317 H   0  0  0  0  0  0  0  0  0  0  0  0
  1  2  1  0
  1 34  1  1
  1 35  1  0
  1 36  1  0
  2  3  1  0
  3  4  2  0
  3  5  1  0
  5  6  1  0
  5 37  1  6
  5 38  1  0
  6  7  1  1
  6 20  1  0
  6  8  1  0
  8 17  2  0
  8  9  1  0
  9 10  2  0
  9 39  1  0
 10 11  1  0
 10 13  1  0
 11 12  1  0
 12 40  1  1
 12 41  1  0
 12 42  1  0
 13 14  1  0
 13 16  2  0
 14 15  1  0
 15 43  1  6
 15 44  1  0
 15 45  1  0
 16 17  1  0
 16 46  1  0
 17 18  1  0
 18 19  1  0
 18 47  1  6
 18 48  1  0
 19 20  1  0
 19 49  1  6
 19 50  1  0
 21 20  1  1
 21 22  2  0
 21 23  2  0
 21 24  1  0
 24 33  2  0
 24 25  1  0
 25 26  2  0
 25 51  1  0
 26 27  1  0
 26 52  1  0
 27 28  1  0
 27 32  2  0
 28 29  1  1
 28 30  1  0
 28 31  1  0
 32 33  1  0
 32 53  1  0
 33 54  1  0
M  END
$$$$
