ZINC000032833835
     RDKit          3D

 49 50  0  0  0  0  0  0  0  0999 V2000
   -0.0187    1.5258    0.0104 C   0  0  1  0  0  0  0  0  0  0  0  0
    0.0021   -0.0041    0.0020 C   0  0  1  0  0  0  0  0  0  0  0  0
   -1.3723   -0.5112    0.0124 N   0  0  0  0  0  0  0  0  0  0  0  0
   -2.1099   -0.6542   -1.2453 C   0  0  1  0  0  0  0  0  0  0  0  0
   -1.7727   -2.0031   -1.8836 C   0  0  1  0  0  0  0  0  0  0  0  0
   -2.0922   -0.9227    1.4458 S   0  0  1  0  0  0  0  0  0  0  0  0
   -3.1196   -1.8512    1.1269 O   0  0  0  0  0  0  0  0  0  0  0  0
   -1.0393   -1.2108    2.3555 O   0  0  0  0  0  0  0  0  0  0  0  0
   -2.8978    0.5199    2.0580 C   0  0  0  0  0  0  0  0  0  0  0  0
   -2.2139    1.3946    2.8822 C   0  0  0  0  0  0  0  0  0  0  0  0
   -2.8423    2.5262    3.3638 C   0  0  0  0  0  0  0  0  0  0  0  0
   -4.1628    2.7852    3.0193 C   0  0  0  0  0  0  0  0  0  0  0  0
   -4.8013    3.9290    3.5041 N   0  0  0  0  0  0  0  0  0  0  0  0
   -6.3756    4.2360    3.0923 S   0  0  1  0  0  0  0  0  0  0  0  0
   -6.3818    4.4941    1.6950 O   0  0  0  0  0  0  0  0  0  0  0  0
   -7.1553    3.2135    3.6972 O   0  0  0  0  0  0  0  0  0  0  0  0
   -6.8360    5.7439    3.8789 C   0  0  0  0  0  0  0  0  0  0  0  0
   -7.3818    5.7212    5.1491 C   0  0  0  0  0  0  0  0  0  0  0  0
   -7.7435    6.9021    5.7679 C   0  0  0  0  0  0  0  0  0  0  0  0
   -7.5584    8.1116    5.1141 C   0  0  0  0  0  0  0  0  0  0  0  0
   -7.9130    9.2747    5.7209 O   0  0  0  0  0  0  0  0  0  0  0  0
   -7.6937   10.4818    4.9883 C   0  0  1  0  0  0  0  0  0  0  0  0
   -8.1439   11.6594    5.8140 C   0  0  0  0  0  0  0  0  0  0  0  0
   -8.6094   11.4813    6.9267 O   0  0  0  0  0  0  0  0  0  0  0  0
   -8.0426   12.7901    5.3693 O   0  0  0  0  0  0  0  0  0  0  0  0
   -7.0101    8.1317    3.8398 C   0  0  0  0  0  0  0  0  0  0  0  0
   -6.6455    6.9484    3.2272 C   0  0  0  0  0  0  0  0  0  0  0  0
   -4.8469    1.9044    2.1911 C   0  0  0  0  0  0  0  0  0  0  0  0
   -4.2107    0.7776    1.7085 C   0  0  0  0  0  0  0  0  0  0  0  0
    1.0039    1.9031    0.0027 H   0  0  0  0  0  0  0  0  0  0  0  0
   -0.5459    1.8868   -0.8726 H   0  0  0  0  0  0  0  0  0  0  0  0
   -0.5289    1.8773    0.9072 H   0  0  0  0  0  0  0  0  0  0  0  0
    0.5123   -0.3556   -0.8948 H   0  0  0  0  0  0  0  0  0  0  0  0
    0.5293   -0.3651    0.8851 H   0  0  0  0  0  0  0  0  0  0  0  0
   -3.1804   -0.6037   -1.0465 H   0  0  0  0  0  0  0  0  0  0  0  0
   -1.8283    0.1500   -1.9251 H   0  0  0  0  0  0  0  0  0  0  0  0
   -2.0544   -2.8073   -1.2038 H   0  0  0  0  0  0  0  0  0  0  0  0
   -2.3215   -2.1096   -2.8194 H   0  0  0  0  0  0  0  0  0  0  0  0
   -0.7022   -2.0536   -2.0825 H   0  0  0  0  0  0  0  0  0  0  0  0
   -1.1873    1.1925    3.1499 H   0  0  0  0  0  0  0  0  0  0  0  0
   -2.3077    3.2088    4.0077 H   0  0  0  0  0  0  0  0  0  0  0  0
   -7.5257    4.7794    5.6577 H   0  0  0  0  0  0  0  0  0  0  0  0
   -8.1705    6.8837    6.7598 H   0  0  0  0  0  0  0  0  0  0  0  0
   -6.6322   10.5815    4.7617 H   0  0  0  0  0  0  0  0  0  0  0  0
   -8.2623   10.4512    4.0589 H   0  0  0  0  0  0  0  0  0  0  0  0
   -6.8652    9.0720    3.3286 H   0  0  0  0  0  0  0  0  0  0  0  0
   -6.2184    6.9636    2.2354 H   0  0  0  0  0  0  0  0  0  0  0  0
   -5.8738    2.1027    1.9217 H   0  0  0  0  0  0  0  0  0  0  0  0
   -4.7419    0.0924    1.0646 H   0  0  0  0  0  0  0  0  0  0  0  0
  1  2  1  0
  1 30  1  6
  1 31  1  0
  1 32  1  0
  2  3  1  0
  2 33  1  6
  2 34  1  0
  3  4  1  0
  6  3  1  6
  4  5  1  0
  4 35  1  1
  4 36  1  0
  5 37  1  1
  5 38  1  0
  5 39  1  0
  6  7  2  0
  6  8  2  0
  6  9  1  0
  9 29  2  0
  9 10  1  0
 10 11  2  0
 10 40  1  0
 11 12  1  0
 11 41  1  0
 12 13  1  0
 12 28  2  0
 14 13  1  1
 14 15  2  0
 14 16  2  0
 14 17  1  0
 17 27  2  0
 17 18  1  0
 18 19  2  0
 18 42  1  0
 19 20  1  0
 19 43  1  0
 20 21  1  0
 20 26  2  0
 21 22  1  0
 22 23  1  0
 22 44  1  6
 22 45  1  0
 23 24  2  0
 23 25  1  0
 26 27  1  0
 26 46  1  0
 27 47  1  0
 28 29  1  0
 28 48  1  0
 29 49  1  0
M  END
$$$$
