ZINC000012630955
     RDKit          3D

 56 57  0  0  0  0  0  0  0  0999 V2000
    0.0292    1.5413    0.0235 C   0  0  1  0  0  0  0  0  0  0  0  0
    0.0523    0.0115    0.0193 C   0  0  1  0  0  0  0  0  0  0  0  0
    0.7297   -0.4634   -1.1898 N   0  0  0  0  0  0  0  0  0  0  0  0
    2.1898   -0.5812   -1.2130 C   0  0  1  0  0  0  0  0  0  0  0  0
    2.6017   -1.9337   -0.6281 C   0  0  1  0  0  0  0  0  0  0  0  0
   -0.1549   -0.8669   -2.5302 S   0  0  1  0  0  0  0  0  0  0  0  0
    0.6449   -1.7691   -3.2822 O   0  0  0  0  0  0  0  0  0  0  0  0
   -1.4605   -1.1853   -2.0684 O   0  0  0  0  0  0  0  0  0  0  0  0
   -0.3145    0.5902   -3.5079 C   0  0  0  0  0  0  0  0  0  0  0  0
   -1.3832    1.4432   -3.3047 C   0  0  0  0  0  0  0  0  0  0  0  0
   -1.5138    2.5883   -4.0689 C   0  0  0  0  0  0  0  0  0  0  0  0
   -0.5725    2.8835   -5.0412 C   0  0  0  0  0  0  0  0  0  0  0  0
   -0.6993    4.0093   -5.7931 O   0  0  0  0  0  0  0  0  0  0  0  0
   -1.8286    4.8435   -5.5269 C   0  0  1  0  0  0  0  0  0  0  0  0
    0.5050    2.0242   -5.2465 C   0  0  0  0  0  0  0  0  0  0  0  0
    1.4606    2.3179   -6.2283 N   0  0  0  0  0  0  0  0  0  0  0  0
    2.1904    1.3262   -6.7764 C   0  0  0  0  0  0  0  0  0  0  0  0
    1.9520    0.1708   -6.4946 O   0  0  0  0  0  0  0  0  0  0  0  0
    3.3025    1.6529   -7.7395 C   0  0  1  0  0  0  0  0  0  0  0  0
    4.0893    0.1168   -8.2981 S   0  0  1  0  0  0  0  0  0  0  0  0
    4.7246   -0.4972   -7.1851 O   0  0  0  0  0  0  0  0  0  0  0  0
    3.1439   -0.6270   -9.0546 O   0  0  0  0  0  0  0  0  0  0  0  0
    5.3690    0.7389   -9.4233 C   0  0  1  0  0  0  0  0  0  0  0  0
    6.1416   -0.4213   -9.9960 C   0  0  0  0  0  0  0  0  0  0  0  0
    7.2646   -0.8937   -9.3428 C   0  0  0  0  0  0  0  0  0  0  0  0
    7.9732   -1.9580   -9.8681 C   0  0  0  0  0  0  0  0  0  0  0  0
    7.5587   -2.5502  -11.0464 C   0  0  0  0  0  0  0  0  0  0  0  0
    6.4352   -2.0784  -11.6991 C   0  0  0  0  0  0  0  0  0  0  0  0
    5.7240   -1.0169  -11.1715 C   0  0  0  0  0  0  0  0  0  0  0  0
    0.6323    0.8806   -4.4724 C   0  0  0  0  0  0  0  0  0  0  0  0
    1.0511    1.9201    0.0071 H   0  0  0  0  0  0  0  0  0  0  0  0
   -0.5051    1.8990   -0.8566 H   0  0  0  0  0  0  0  0  0  0  0  0
   -0.4748    1.8946    0.9231 H   0  0  0  0  0  0  0  0  0  0  0  0
    0.5866   -0.3463    0.8994 H   0  0  0  0  0  0  0  0  0  0  0  0
   -0.9696   -0.3674    0.0358 H   0  0  0  0  0  0  0  0  0  0  0  0
    2.5440   -0.5069   -2.2411 H   0  0  0  0  0  0  0  0  0  0  0  0
    2.6285    0.2204   -0.6187 H   0  0  0  0  0  0  0  0  0  0  0  0
    2.2475   -2.0080    0.4001 H   0  0  0  0  0  0  0  0  0  0  0  0
    2.1630   -2.7353   -1.2223 H   0  0  0  0  0  0  0  0  0  0  0  0
    3.6880   -2.0214   -0.6454 H   0  0  0  0  0  0  0  0  0  0  0  0
   -2.1184    1.2144   -2.5474 H   0  0  0  0  0  0  0  0  0  0  0  0
   -2.3502    3.2523   -3.9079 H   0  0  0  0  0  0  0  0  0  0  0  0
   -1.8094    5.7048   -6.1945 H   0  0  0  0  0  0  0  0  0  0  0  0
   -2.7453    4.2771   -5.6907 H   0  0  0  0  0  0  0  0  0  0  0  0
   -1.7923    5.1848   -4.4923 H   0  0  0  0  0  0  0  0  0  0  0  0
    1.5970    3.2350   -6.5134 H   0  0  0  0  0  0  0  0  0  0  0  0
    2.8945    2.1854   -8.5986 H   0  0  0  0  0  0  0  0  0  0  0  0
    4.0422    2.2796   -7.2413 H   0  0  0  0  0  0  0  0  0  0  0  0
    4.9002    1.2983  -10.2329 H   0  0  0  0  0  0  0  0  0  0  0  0
    6.0479    1.3926   -8.8756 H   0  0  0  0  0  0  0  0  0  0  0  0
    7.5884   -0.4310   -8.4222 H   0  0  0  0  0  0  0  0  0  0  0  0
    8.8510   -2.3266   -9.3581 H   0  0  0  0  0  0  0  0  0  0  0  0
    8.1128   -3.3812  -11.4571 H   0  0  0  0  0  0  0  0  0  0  0  0
    6.1115   -2.5408  -12.6198 H   0  0  0  0  0  0  0  0  0  0  0  0
    4.8463   -0.6483  -11.6815 H   0  0  0  0  0  0  0  0  0  0  0  0
    1.4665    0.2126   -4.6287 H   0  0  0  0  0  0  0  0  0  0  0  0
  1  2  1  0
  1 31  1  6
  1 32  1  0
  1 33  1  0
  2  3  1  0
  2 34  1  1
  2 35  1  0
  3  4  1  0
  6  3  1  1
  4  5  1  0
  4 36  1  6
  4 37  1  0
  5 38  1  1
  5 39  1  0
  5 40  1  0
  6  7  2  0
  6  8  2  0
  6  9  1  0
  9 30  2  0
  9 10  1  0
 10 11  2  0
 10 41  1  0
 11 12  1  0
 11 42  1  0
 12 13  1  0
 12 15  2  0
 13 14  1  0
 14 43  1  6
 14 44  1  0
 14 45  1  0
 15 16  1  0
 15 30  1  0
 16 17  1  0
 16 46  1  0
 17 18  2  0
 17 19  1  0
 20 19  1  1
 19 47  1  6
 19 48  1  0
 20 21  2  0
 20 22  2  0
 20 23  1  0
 23 24  1  0
 23 49  1  6
 23 50  1  0
 24 29  2  0
 24 25  1  0
 25 26  2  0
 25 51  1  0
 26 27  1  0
 26 52  1  0
 27 28  2  0
 27 53  1  0
 28 29  1  0
 28 54  1  0
 29 55  1  0
 30 56  1  0
M  END
$$$$
