ZINC000011612634
     RDKit          3D

 50 52  0  0  1  0  0  0  0  0999 V2000
    0.5356   -0.2585   -0.1329 O   0  0  0  0  0  0  0  0  0  0  0  0
    0.1531    0.8835   -0.2761 C   0  0  0  0  0  0  0  0  0  0  0  0
    1.1159    2.0288   -0.0965 C   0  0  1  0  0  0  0  0  0  0  0  0
    2.4547    1.4940    0.4158 C   0  0  1  0  0  0  0  0  0  0  0  0
    2.8191    0.7171   -0.2563 H   0  0  0  0  0  0  0  0  0  0  0  0
    3.4732    2.6365    0.4804 C   0  0  1  0  0  0  0  0  0  0  0  0
    4.7653    2.1269    1.1229 C   0  0  1  0  0  0  0  0  0  0  0  0
    4.4762    1.6563    2.5502 C   0  0  1  0  0  0  0  0  0  0  0  0
    3.4690    0.5028    2.5091 C   0  0  1  0  0  0  0  0  0  0  0  0
    2.2790    0.9365    1.7638 N   0  0  0  0  0  0  0  0  0  0  0  0
    0.7700    0.8051    2.4331 S   0  0  1  0  0  0  0  0  0  0  0  0
   -0.0594    1.7250    1.7364 O   0  0  0  0  0  0  0  0  0  0  0  0
    0.4884   -0.5851    2.5181 O   0  0  0  0  0  0  0  0  0  0  0  0
    0.8816    1.3925    4.0906 C   0  0  0  0  0  0  0  0  0  0  0  0
    1.2806    0.5379    5.1012 C   0  0  0  0  0  0  0  0  0  0  0  0
    1.3682    0.9987    6.4016 C   0  0  0  0  0  0  0  0  0  0  0  0
    1.0572    2.3141    6.6912 C   0  0  0  0  0  0  0  0  0  0  0  0
    0.6591    3.1689    5.6804 C   0  0  0  0  0  0  0  0  0  0  0  0
    0.5757    2.7092    4.3793 C   0  0  0  0  0  0  0  0  0  0  0  0
   -1.1318    1.1280   -0.6013 N   0  0  0  0  0  0  0  0  0  0  0  0
   -2.0479    0.0728   -0.6748 C   0  0  0  0  0  0  0  0  0  0  0  0
   -3.3766    0.2795   -0.3279 C   0  0  0  0  0  0  0  0  0  0  0  0
   -4.2783   -0.7641   -0.4014 C   0  0  0  0  0  0  0  0  0  0  0  0
   -3.8592   -2.0138   -0.8194 C   0  0  0  0  0  0  0  0  0  0  0  0
   -4.8456   -3.1504   -0.8980 C   0  0  1  0  0  0  0  0  0  0  0  0
   -5.4262   -3.1768   -2.1706 F   0  0  0  0  0  0  0  0  0  0  0  0
   -4.1833   -4.3599   -0.6624 F   0  0  0  0  0  0  0  0  0  0  0  0
   -5.8432   -2.9695    0.0660 F   0  0  0  0  0  0  0  0  0  0  0  0
   -2.5369   -2.2227   -1.1660 C   0  0  0  0  0  0  0  0  0  0  0  0
   -1.6314   -1.1819   -1.1001 C   0  0  0  0  0  0  0  0  0  0  0  0
    1.2668    2.5300   -1.0526 H   0  0  0  0  0  0  0  0  0  0  0  0
    0.7076    2.7370    0.6245 H   0  0  0  0  0  0  0  0  0  0  0  0
    3.6843    2.9931   -0.5278 H   0  0  0  0  0  0  0  0  0  0  0  0
    3.0671    3.4526    1.0779 H   0  0  0  0  0  0  0  0  0  0  0  0
    5.1578    1.2946    0.5387 H   0  0  0  0  0  0  0  0  0  0  0  0
    5.5004    2.9314    1.1477 H   0  0  0  0  0  0  0  0  0  0  0  0
    5.4012    1.3153    3.0153 H   0  0  0  0  0  0  0  0  0  0  0  0
    4.0606    2.4817    3.1282 H   0  0  0  0  0  0  0  0  0  0  0  0
    3.9174   -0.3561    2.0097 H   0  0  0  0  0  0  0  0  0  0  0  0
    3.1845    0.2297    3.5253 H   0  0  0  0  0  0  0  0  0  0  0  0
    1.5236   -0.4898    4.8750 H   0  0  0  0  0  0  0  0  0  0  0  0
    1.6793    0.3309    7.1913 H   0  0  0  0  0  0  0  0  0  0  0  0
    1.1250    2.6739    7.7072 H   0  0  0  0  0  0  0  0  0  0  0  0
    0.4158    4.1965    5.9067 H   0  0  0  0  0  0  0  0  0  0  0  0
    0.2646    3.3770    3.5896 H   0  0  0  0  0  0  0  0  0  0  0  0
   -1.4215    2.0354   -0.7845 H   0  0  0  0  0  0  0  0  0  0  0  0
   -3.7044    1.2551   -0.0006 H   0  0  0  0  0  0  0  0  0  0  0  0
   -5.3118   -0.6040   -0.1318 H   0  0  0  0  0  0  0  0  0  0  0  0
   -2.2126   -3.1999   -1.4921 H   0  0  0  0  0  0  0  0  0  0  0  0
   -0.5989   -1.3457   -1.3709 H   0  0  0  0  0  0  0  0  0  0  0  0
  1  2  2  0
  2  3  1  0
  2 20  1  0
  3  4  1  0
  3 31  1  6
  3 32  1  0
  4  5  1  6
  4 10  1  0
  4  6  1  0
  6  7  1  0
  6 33  1  6
  6 34  1  0
  7  8  1  0
  7 35  1  6
  7 36  1  0
  8  9  1  0
  8 37  1  1
  8 38  1  0
  9 10  1  0
  9 39  1  6
  9 40  1  0
 11 10  1  6
 11 12  2  0
 11 13  2  0
 11 14  1  0
 14 19  2  0
 14 15  1  0
 15 16  2  0
 15 41  1  0
 16 17  1  0
 16 42  1  0
 17 18  2  0
 17 43  1  0
 18 19  1  0
 18 44  1  0
 19 45  1  0
 20 21  1  0
 20 46  1  0
 21 30  2  0
 21 22  1  0
 22 23  2  0
 22 47  1  0
 23 24  1  0
 23 48  1  0
 24 25  1  0
 24 29  2  0
 25 26  1  6
 25 27  1  0
 25 28  1  0
 29 30  1  0
 29 49  1  0
 30 50  1  0
M  END
$$$$
