ZINC000003188556
     RDKit          3D

 47 48  0  0  0  0  0  0  0  0999 V2000
   -0.0187    1.5258    0.0104 C   0  0  1  0  0  0  0  0  0  0  0  0
    0.0021   -0.0041    0.0020 C   0  0  1  0  0  0  0  0  0  0  0  0
   -1.3723   -0.5112    0.0124 N   0  0  0  0  0  0  0  0  0  0  0  0
   -2.1099   -0.6542   -1.2453 C   0  0  1  0  0  0  0  0  0  0  0  0
   -1.7727   -2.0031   -1.8836 C   0  0  1  0  0  0  0  0  0  0  0  0
   -2.0922   -0.9227    1.4458 S   0  0  1  0  0  0  0  0  0  0  0  0
   -3.1196   -1.8512    1.1269 O   0  0  0  0  0  0  0  0  0  0  0  0
   -1.0393   -1.2108    2.3555 O   0  0  0  0  0  0  0  0  0  0  0  0
   -2.8978    0.5199    2.0580 C   0  0  0  0  0  0  0  0  0  0  0  0
   -2.2144    1.3948    2.8821 C   0  0  0  0  0  0  0  0  0  0  0  0
   -2.8437    2.5265    3.3633 C   0  0  0  0  0  0  0  0  0  0  0  0
   -4.1624    2.7850    3.0187 C   0  0  0  0  0  0  0  0  0  0  0  0
   -4.7836    3.8979    3.4905 O   0  0  0  0  0  0  0  0  0  0  0  0
   -6.1417    4.0999    3.0945 C   0  0  1  0  0  0  0  0  0  0  0  0
   -6.6600    5.3744    3.7095 C   0  0  0  0  0  0  0  0  0  0  0  0
   -5.9375    6.0437    4.4172 O   0  0  0  0  0  0  0  0  0  0  0  0
   -7.9264    5.7703    3.4731 N   0  0  0  0  0  0  0  0  0  0  0  0
   -8.4302    7.0092    4.0709 C   0  0  1  0  0  0  0  0  0  0  0  0
   -9.8625    7.2223    3.6533 C   0  0  0  0  0  0  0  0  0  0  0  0
  -10.9482    6.7789    4.3121 C   0  0  0  0  0  0  0  0  0  0  0  0
  -12.0768    7.2013    3.5727 C   0  0  0  0  0  0  0  0  0  0  0  0
  -11.6132    7.8775    2.5063 C   0  0  0  0  0  0  0  0  0  0  0  0
  -10.2715    7.8920    2.5634 O   0  0  0  0  0  0  0  0  0  0  0  0
   -4.8459    1.9058    2.1913 C   0  0  0  0  0  0  0  0  0  0  0  0
   -4.2105    0.7780    1.7088 C   0  0  0  0  0  0  0  0  0  0  0  0
    1.0039    1.9031    0.0027 H   0  0  0  0  0  0  0  0  0  0  0  0
   -0.5459    1.8868   -0.8726 H   0  0  0  0  0  0  0  0  0  0  0  0
   -0.5289    1.8773    0.9072 H   0  0  0  0  0  0  0  0  0  0  0  0
    0.5123   -0.3556   -0.8948 H   0  0  0  0  0  0  0  0  0  0  0  0
    0.5293   -0.3651    0.8851 H   0  0  0  0  0  0  0  0  0  0  0  0
   -3.1804   -0.6037   -1.0465 H   0  0  0  0  0  0  0  0  0  0  0  0
   -1.8283    0.1500   -1.9251 H   0  0  0  0  0  0  0  0  0  0  0  0
   -0.7022   -2.0536   -2.0825 H   0  0  0  0  0  0  0  0  0  0  0  0
   -2.0544   -2.8073   -1.2038 H   0  0  0  0  0  0  0  0  0  0  0  0
   -2.3215   -2.1096   -2.8194 H   0  0  0  0  0  0  0  0  0  0  0  0
   -1.1877    1.1931    3.1500 H   0  0  0  0  0  0  0  0  0  0  0  0
   -2.3096    3.2093    4.0075 H   0  0  0  0  0  0  0  0  0  0  0  0
   -6.1966    4.1721    2.0083 H   0  0  0  0  0  0  0  0  0  0  0  0
   -6.7479    3.2600    3.4339 H   0  0  0  0  0  0  0  0  0  0  0  0
   -8.5043    5.2349    2.9071 H   0  0  0  0  0  0  0  0  0  0  0  0
   -8.3753    6.9370    5.1571 H   0  0  0  0  0  0  0  0  0  0  0  0
   -7.8240    7.8491    3.7315 H   0  0  0  0  0  0  0  0  0  0  0  0
  -10.9562    6.2091    5.2295 H   0  0  0  0  0  0  0  0  0  0  0  0
  -13.1124    7.0162    3.8170 H   0  0  0  0  0  0  0  0  0  0  0  0
  -12.2176    8.3347    1.7368 H   0  0  0  0  0  0  0  0  0  0  0  0
   -5.8726    2.1046    1.9219 H   0  0  0  0  0  0  0  0  0  0  0  0
   -4.7420    0.0934    1.0644 H   0  0  0  0  0  0  0  0  0  0  0  0
  1  2  1  0
  1 26  1  6
  1 27  1  0
  1 28  1  0
  2  3  1  0
  2 29  1  6
  2 30  1  0
  3  4  1  0
  6  3  1  6
  4  5  1  0
  4 31  1  1
  4 32  1  0
  5 33  1  6
  5 34  1  0
  5 35  1  0
  6  7  2  0
  6  8  2  0
  6  9  1  0
  9 25  2  0
  9 10  1  0
 10 11  2  0
 10 36  1  0
 11 12  1  0
 11 37  1  0
 12 13  1  0
 12 24  2  0
 13 14  1  0
 14 15  1  0
 14 38  1  6
 14 39  1  0
 15 16  2  0
 15 17  1  0
 17 18  1  0
 17 40  1  0
 18 19  1  0
 18 41  1  1
 18 42  1  0
 19 23  1  0
 19 20  2  0
 20 21  1  0
 20 43  1  0
 21 22  2  0
 21 44  1  0
 22 23  1  0
 22 45  1  0
 24 25  1  0
 24 46  1  0
 25 47  1  0
M  END
$$$$
