ZINC000000663847
     RDKit          3D

 51 53  0  0  0  0  0  0  0  0999 V2000
   -0.0155    1.4632   -0.0202 C   0  0  1  0  0  0  0  0  0  0  0  0
    0.0118    0.0345   -0.0251 O   0  0  0  0  0  0  0  0  0  0  0  0
   -1.1870   -0.6055   -0.0104 C   0  0  0  0  0  0  0  0  0  0  0  0
   -2.3654    0.1265    0.0026 C   0  0  0  0  0  0  0  0  0  0  0  0
   -3.5827   -0.5264    0.0172 C   0  0  0  0  0  0  0  0  0  0  0  0
   -3.6273   -1.9083    0.0192 C   0  0  0  0  0  0  0  0  0  0  0  0
   -5.1816   -2.7381    0.0383 S   0  0  1  0  0  0  0  0  0  0  0  0
   -4.9406   -4.0290    0.5813 O   0  0  0  0  0  0  0  0  0  0  0  0
   -6.1176   -1.8240    0.5928 O   0  0  0  0  0  0  0  0  0  0  0  0
   -5.6325   -2.9707   -1.5381 N   0  0  0  0  0  0  0  0  0  0  0  0
   -6.4266   -1.9578   -2.2467 C   0  0  1  0  0  0  0  0  0  0  0  0
   -5.7077   -1.5898   -3.5485 C   0  0  1  0  0  0  0  0  0  0  0  0
   -5.4442   -2.8615   -4.3582 C   0  0  1  0  0  0  0  0  0  0  0  0
   -4.7675   -2.4997   -5.6552 C   0  0  0  0  0  0  0  0  0  0  0  0
   -4.5203   -1.3393   -5.9071 O   0  0  0  0  0  0  0  0  0  0  0  0
   -4.4370   -3.4656   -6.5351 N   0  0  0  0  0  0  0  0  0  0  0  0
   -3.8973   -3.1231   -7.7798 C   0  0  0  0  0  0  0  0  0  0  0  0
   -4.2098   -3.8755   -8.9045 C   0  0  0  0  0  0  0  0  0  0  0  0
   -3.6754   -3.5349  -10.1317 C   0  0  0  0  0  0  0  0  0  0  0  0
   -2.8297   -2.4463  -10.2411 C   0  0  0  0  0  0  0  0  0  0  0  0
   -2.2480   -2.0778  -11.5816 C   0  0  1  0  0  0  0  0  0  0  0  0
   -3.1043   -1.1823  -12.2312 F   0  0  0  0  0  0  0  0  0  0  0  0
   -0.9976   -1.4778  -11.3983 F   0  0  0  0  0  0  0  0  0  0  0  0
   -2.1021   -3.2313  -12.3596 F   0  0  0  0  0  0  0  0  0  0  0  0
   -2.5169   -1.6949   -9.1232 C   0  0  0  0  0  0  0  0  0  0  0  0
   -3.0526   -2.0268   -7.8942 C   0  0  0  0  0  0  0  0  0  0  0  0
   -4.5405   -3.8008   -3.5562 C   0  0  1  0  0  0  0  0  0  0  0  0
   -5.2410   -4.1911   -2.2564 C   0  0  1  0  0  0  0  0  0  0  0  0
   -2.4543   -2.6402    0.0058 C   0  0  0  0  0  0  0  0  0  0  0  0
   -1.2345   -1.9921   -0.0141 C   0  0  0  0  0  0  0  0  0  0  0  0
    1.0050    1.8461   -0.0333 H   0  0  0  0  0  0  0  0  0  0  0  0
   -0.5486    1.8194   -0.9017 H   0  0  0  0  0  0  0  0  0  0  0  0
   -0.5236    1.8138    0.8781 H   0  0  0  0  0  0  0  0  0  0  0  0
   -2.3311    1.2060    0.0018 H   0  0  0  0  0  0  0  0  0  0  0  0
   -4.5003    0.0431    0.0273 H   0  0  0  0  0  0  0  0  0  0  0  0
   -7.4130   -2.3611   -2.4755 H   0  0  0  0  0  0  0  0  0  0  0  0
   -6.5283   -1.0704   -1.6220 H   0  0  0  0  0  0  0  0  0  0  0  0
   -6.3322   -0.9113   -4.1297 H   0  0  0  0  0  0  0  0  0  0  0  0
   -4.7602   -1.1037   -3.3160 H   0  0  0  0  0  0  0  0  0  0  0  0
   -6.3902   -3.3602   -4.5689 H   0  0  0  0  0  0  0  0  0  0  0  0
   -4.5733   -4.3981   -6.3055 H   0  0  0  0  0  0  0  0  0  0  0  0
   -4.8697   -4.7262   -8.8196 H   0  0  0  0  0  0  0  0  0  0  0  0
   -3.9180   -4.1196  -11.0067 H   0  0  0  0  0  0  0  0  0  0  0  0
   -1.8561   -0.8453   -9.2119 H   0  0  0  0  0  0  0  0  0  0  0  0
   -2.8079   -1.4396   -7.0214 H   0  0  0  0  0  0  0  0  0  0  0  0
   -4.3343   -4.6960   -4.1429 H   0  0  0  0  0  0  0  0  0  0  0  0
   -3.6040   -3.2939   -3.3236 H   0  0  0  0  0  0  0  0  0  0  0  0
   -4.5627   -4.7790   -1.6381 H   0  0  0  0  0  0  0  0  0  0  0  0
   -6.1321   -4.7764   -2.4831 H   0  0  0  0  0  0  0  0  0  0  0  0
   -2.4918   -3.7196    0.0070 H   0  0  0  0  0  0  0  0  0  0  0  0
   -0.3186   -2.5642   -0.0246 H   0  0  0  0  0  0  0  0  0  0  0  0
  1  2  1  0
  1 31  1  6
  1 32  1  0
  1 33  1  0
  2  3  1  0
  3 30  2  0
  3  4  1  0
  4  5  2  0
  4 34  1  0
  5  6  1  0
  5 35  1  0
  6  7  1  0
  6 29  2  0
  7  8  2  0
  7  9  2  0
  7 10  1  6
 10 28  1  0
 10 11  1  0
 11 12  1  0
 11 36  1  6
 11 37  1  0
 12 13  1  0
 12 38  1  6
 12 39  1  0
 13 14  1  0
 13 27  1  0
 13 40  1  6
 14 15  2  0
 14 16  1  0
 16 17  1  0
 16 41  1  0
 17 26  2  0
 17 18  1  0
 18 19  2  0
 18 42  1  0
 19 20  1  0
 19 43  1  0
 20 21  1  0
 20 25  2  0
 21 22  1  6
 21 23  1  0
 21 24  1  0
 25 26  1  0
 25 44  1  0
 26 45  1  0
 27 28  1  0
 27 46  1  6
 27 47  1  0
 28 48  1  1
 28 49  1  0
 29 30  1  0
 29 50  1  0
 30 51  1  0
M  END
$$$$
