ZINC000000924344
     RDKit          3D

 54 56  0  0  1  0  0  0  0  0999 V2000
   -8.1212   -6.3287    4.1947 C   0  0  1  0  0  0  0  0  0  0  0  0
   -8.5300   -5.0796    3.6338 O   0  0  0  0  0  0  0  0  0  0  0  0
   -7.6715   -4.4828    2.7642 C   0  0  0  0  0  0  0  0  0  0  0  0
   -6.4653   -5.0890    2.4535 C   0  0  0  0  0  0  0  0  0  0  0  0
   -5.5936   -4.4811    1.5687 C   0  0  0  0  0  0  0  0  0  0  0  0
   -5.9226   -3.2685    0.9930 C   0  0  0  0  0  0  0  0  0  0  0  0
   -4.9688   -2.6101    0.0298 C   0  0  1  0  0  0  0  0  0  0  0  0
   -5.3543   -2.9433   -1.3438 N   0  0  0  0  0  0  0  0  0  0  0  0
   -4.9086   -4.2028   -1.9447 C   0  0  1  0  0  0  0  0  0  0  0  0
   -5.8759   -5.3231   -1.5573 C   0  0  2  0  0  0  0  0  0  0  0  0
   -5.9789   -5.3640   -0.4729 H   0  0  0  0  0  0  0  0  0  0  0  0
   -5.3495   -6.6752   -2.0847 C   0  0  1  0  0  0  0  0  0  0  0  0
   -6.6536   -7.3764   -2.5533 C   0  0  1  0  0  0  0  0  0  0  0  0
   -7.4734   -6.1637   -3.0612 C   0  0  1  0  0  0  0  0  0  0  0  0
   -7.1549   -5.0903   -2.1585 O   0  0  0  0  0  0  0  0  0  0  0  0
   -6.2940   -1.8961   -2.2172 S   0  0  1  0  0  0  0  0  0  0  0  0
   -7.0096   -2.6869   -3.1562 O   0  0  0  0  0  0  0  0  0  0  0  0
   -6.9297   -1.0449   -1.2734 O   0  0  0  0  0  0  0  0  0  0  0  0
   -5.2051   -0.8752   -3.1536 C   0  0  0  0  0  0  0  0  0  0  0  0
   -4.8168    0.3560   -2.6554 C   0  0  0  0  0  0  0  0  0  0  0  0
   -3.9647    1.1604   -3.3829 C   0  0  0  0  0  0  0  0  0  0  0  0
   -3.4936    0.7294   -4.6256 C   0  0  0  0  0  0  0  0  0  0  0  0
   -2.5815    1.5840   -5.4095 C   0  0  0  0  0  0  0  0  0  0  0  0
   -2.2361    2.6724   -4.9719 O   0  0  0  0  0  0  0  0  0  0  0  0
   -2.1709    1.2039   -6.4969 O   0  0  0  0  0  0  0  0  0  0  0  0
   -3.8900   -0.5149   -5.1223 C   0  0  0  0  0  0  0  0  0  0  0  0
   -4.7380   -1.3111   -4.3812 C   0  0  0  0  0  0  0  0  0  0  0  0
   -7.1253   -2.6582    1.2985 C   0  0  0  0  0  0  0  0  0  0  0  0
   -8.0053   -3.2644    2.1799 C   0  0  0  0  0  0  0  0  0  0  0  0
   -9.1885   -2.6655    2.4814 O   0  0  0  0  0  0  0  0  0  0  0  0
   -9.4597   -1.4114    1.8525 C   0  0  1  0  0  0  0  0  0  0  0  0
   -8.8952   -6.6947    4.8693 H   0  0  0  0  0  0  0  0  0  0  0  0
   -7.9646   -7.0524    3.3948 H   0  0  0  0  0  0  0  0  0  0  0  0
   -7.1921   -6.1918    4.7480 H   0  0  0  0  0  0  0  0  0  0  0  0
   -6.2055   -6.0363    2.9026 H   0  0  0  0  0  0  0  0  0  0  0  0
   -4.6535   -4.9547    1.3273 H   0  0  0  0  0  0  0  0  0  0  0  0
   -5.0042   -1.5291    0.1650 H   0  0  0  0  0  0  0  0  0  0  0  0
   -3.9565   -2.9670    0.2197 H   0  0  0  0  0  0  0  0  0  0  0  0
   -4.8872   -4.1002   -3.0296 H   0  0  0  0  0  0  0  0  0  0  0  0
   -3.9092   -4.4444   -1.5828 H   0  0  0  0  0  0  0  0  0  0  0  0
   -4.6671   -6.5261   -2.9215 H   0  0  0  0  0  0  0  0  0  0  0  0
   -4.8692   -7.2422   -1.2873 H   0  0  0  0  0  0  0  0  0  0  0  0
   -6.4527   -8.0806   -3.3607 H   0  0  0  0  0  0  0  0  0  0  0  0
   -7.1557   -7.8691   -1.7207 H   0  0  0  0  0  0  0  0  0  0  0  0
   -7.1762   -5.9050   -4.0775 H   0  0  0  0  0  0  0  0  0  0  0  0
   -8.5400   -6.3853   -3.0229 H   0  0  0  0  0  0  0  0  0  0  0  0
   -5.1820    0.6880   -1.6948 H   0  0  0  0  0  0  0  0  0  0  0  0
   -3.6627    2.1212   -2.9930 H   0  0  0  0  0  0  0  0  0  0  0  0
   -3.5300   -0.8542   -6.0823 H   0  0  0  0  0  0  0  0  0  0  0  0
   -5.0453   -2.2731   -4.7638 H   0  0  0  0  0  0  0  0  0  0  0  0
   -7.3800   -1.7106    0.8472 H   0  0  0  0  0  0  0  0  0  0  0  0
   -9.4646   -1.5412    0.7702 H   0  0  0  0  0  0  0  0  0  0  0  0
  -10.4328   -1.0442    2.1787 H   0  0  0  0  0  0  0  0  0  0  0  0
   -8.6887   -0.6921    2.1287 H   0  0  0  0  0  0  0  0  0  0  0  0
  1  2  1  0
  1 32  1  1
  1 33  1  0
  1 34  1  0
  2  3  1  0
  3 29  2  0
  3  4  1  0
  4  5  2  0
  4 35  1  0
  5  6  1  0
  5 36  1  0
  6  7  1  0
  6 28  2  0
  7  8  1  0
  7 37  1  6
  7 38  1  0
  8  9  1  0
 16  8  1  1
  9 10  1  0
  9 39  1  6
  9 40  1  0
 10 11  1  1
 10 15  1  0
 10 12  1  0
 12 13  1  0
 12 41  1  6
 12 42  1  0
 13 14  1  0
 13 43  1  6
 13 44  1  0
 14 15  1  0
 14 45  1  6
 14 46  1  0
 16 17  2  0
 16 18  2  0
 16 19  1  0
 19 27  2  0
 19 20  1  0
 20 21  2  0
 20 47  1  0
 21 22  1  0
 21 48  1  0
 22 23  1  0
 22 26  2  0
 23 24  2  0
 23 25  1  0
 26 27  1  0
 26 49  1  0
 27 50  1  0
 28 29  1  0
 28 51  1  0
 29 30  1  0
 30 31  1  0
 31 52  1  6
 31 53  1  0
 31 54  1  0
M  END
$$$$
