ZINC000033647903
     RDKit          3D

 59 61  0  0  1  0  0  0  0  0999 V2000
    1.0261   -5.8997  -10.0417 C   0  0  1  0  0  0  0  0  0  0  0  0
    1.5296   -4.5675   -9.9243 O   0  0  0  0  0  0  0  0  0  0  0  0
    1.7785   -4.1101   -8.6680 C   0  0  0  0  0  0  0  0  0  0  0  0
    1.5488   -4.9275   -7.5734 C   0  0  0  0  0  0  0  0  0  0  0  0
    1.8029   -4.4610   -6.2967 C   0  0  0  0  0  0  0  0  0  0  0  0
    2.2856   -3.1796   -6.1092 C   0  0  0  0  0  0  0  0  0  0  0  0
    2.6068   -2.5909   -4.4798 S   0  0  1  0  0  0  0  0  0  0  0  0
    2.5221   -1.1738   -4.5412 O   0  0  0  0  0  0  0  0  0  0  0  0
    1.8128   -3.3798   -3.6043 O   0  0  0  0  0  0  0  0  0  0  0  0
    4.1853   -2.9504   -4.1310 N   0  0  0  0  0  0  0  0  0  0  0  0
    4.5399   -4.2799   -3.6281 C   0  0  1  0  0  0  0  0  0  0  0  0
    4.9711   -5.1533   -4.7780 C   0  0  0  0  0  0  0  0  0  0  0  0
    4.9812   -4.7090   -5.9064 O   0  0  0  0  0  0  0  0  0  0  0  0
    5.3455   -6.4283   -4.5524 N   0  0  0  0  0  0  0  0  0  0  0  0
    5.7647   -7.2773   -5.6702 C   0  0  1  0  0  0  0  0  0  0  0  0
    6.1350   -8.6658   -5.1450 C   0  0  2  0  0  0  0  0  0  0  0  0
    6.8814   -8.5756   -4.3558 H   0  0  0  0  0  0  0  0  0  0  0  0
    6.6924   -9.5299   -6.2967 C   0  0  1  0  0  0  0  0  0  0  0  0
    6.0762  -10.9225   -5.9919 C   0  0  1  0  0  0  0  0  0  0  0  0
    4.7055  -10.5136   -5.3961 C   0  0  1  0  0  0  0  0  0  0  0  0
    4.9669   -9.3205   -4.6366 O   0  0  0  0  0  0  0  0  0  0  0  0
    5.2271   -1.9389   -4.3253 C   0  0  1  0  0  0  0  0  0  0  0  0
    5.4921   -1.2336   -3.0201 C   0  0  0  0  0  0  0  0  0  0  0  0
    4.8523   -0.0415   -2.7364 C   0  0  0  0  0  0  0  0  0  0  0  0
    5.0954    0.6054   -1.5392 C   0  0  0  0  0  0  0  0  0  0  0  0
    5.9779    0.0601   -0.6256 C   0  0  0  0  0  0  0  0  0  0  0  0
    6.6170   -1.1325   -0.9090 C   0  0  0  0  0  0  0  0  0  0  0  0
    6.3706   -1.7816   -2.1043 C   0  0  0  0  0  0  0  0  0  0  0  0
    2.5176   -2.3586   -7.1975 C   0  0  0  0  0  0  0  0  0  0  0  0
    2.2701   -2.8216   -8.4795 C   0  0  0  0  0  0  0  0  0  0  0  0
    2.4977   -2.0155   -9.5509 O   0  0  0  0  0  0  0  0  0  0  0  0
    2.9924   -0.7023   -9.2812 C   0  0  1  0  0  0  0  0  0  0  0  0
    1.7440   -6.5986   -9.6125 H   0  0  0  0  0  0  0  0  0  0  0  0
    0.0788   -5.9785   -9.5083 H   0  0  0  0  0  0  0  0  0  0  0  0
    0.8715   -6.1382  -11.0940 H   0  0  0  0  0  0  0  0  0  0  0  0
    1.1709   -5.9290   -7.7172 H   0  0  0  0  0  0  0  0  0  0  0  0
    1.6233   -5.0993   -5.4442 H   0  0  0  0  0  0  0  0  0  0  0  0
    5.3573   -4.1916   -2.9125 H   0  0  0  0  0  0  0  0  0  0  0  0
    3.6744   -4.7257   -3.1379 H   0  0  0  0  0  0  0  0  0  0  0  0
    5.3374   -6.7836   -3.6499 H   0  0  0  0  0  0  0  0  0  0  0  0
    4.9472   -7.3657   -6.3858 H   0  0  0  0  0  0  0  0  0  0  0  0
    6.6302   -6.8316   -6.1604 H   0  0  0  0  0  0  0  0  0  0  0  0
    6.3501   -9.1570   -7.2620 H   0  0  0  0  0  0  0  0  0  0  0  0
    7.7810   -9.5707   -6.2592 H   0  0  0  0  0  0  0  0  0  0  0  0
    5.9498  -11.5044   -6.9048 H   0  0  0  0  0  0  0  0  0  0  0  0
    6.6756  -11.4660   -5.2616 H   0  0  0  0  0  0  0  0  0  0  0  0
    3.9927  -10.3063   -6.1942 H   0  0  0  0  0  0  0  0  0  0  0  0
    4.3264  -11.3007   -4.7442 H   0  0  0  0  0  0  0  0  0  0  0  0
    6.1418   -2.4210   -4.6700 H   0  0  0  0  0  0  0  0  0  0  0  0
    4.8957   -1.2143   -5.0691 H   0  0  0  0  0  0  0  0  0  0  0  0
    4.1628    0.3846   -3.4501 H   0  0  0  0  0  0  0  0  0  0  0  0
    4.5961    1.5372   -1.3178 H   0  0  0  0  0  0  0  0  0  0  0  0
    6.1683    0.5659    0.3095 H   0  0  0  0  0  0  0  0  0  0  0  0
    7.3067   -1.5584   -0.1953 H   0  0  0  0  0  0  0  0  0  0  0  0
    6.8699   -2.7133   -2.3257 H   0  0  0  0  0  0  0  0  0  0  0  0
    2.8948   -1.3578   -7.0483 H   0  0  0  0  0  0  0  0  0  0  0  0
    3.1299   -0.1660  -10.2201 H   0  0  0  0  0  0  0  0  0  0  0  0
    2.2775   -0.1656   -8.6576 H   0  0  0  0  0  0  0  0  0  0  0  0
    3.9472   -0.7736   -8.7603 H   0  0  0  0  0  0  0  0  0  0  0  0
  1  2  1  0
  1 33  1  1
  1 34  1  0
  1 35  1  0
  2  3  1  0
  3 30  2  0
  3  4  1  0
  4  5  2  0
  4 36  1  0
  5  6  1  0
  5 37  1  0
  6  7  1  0
  6 29  2  0
  7  8  2  0
  7  9  2  0
  7 10  1  1
 10 11  1  0
 10 22  1  0
 11 12  1  0
 11 38  1  1
 11 39  1  0
 12 13  2  0
 12 14  1  0
 14 15  1  0
 14 40  1  0
 15 16  1  0
 15 41  1  6
 15 42  1  0
 16 17  1  1
 16 21  1  0
 16 18  1  0
 18 19  1  0
 18 43  1  6
 18 44  1  0
 19 20  1  0
 19 45  1  6
 19 46  1  0
 20 21  1  0
 20 47  1  6
 20 48  1  0
 22 23  1  0
 22 49  1  6
 22 50  1  0
 23 28  2  0
 23 24  1  0
 24 25  2  0
 24 51  1  0
 25 26  1  0
 25 52  1  0
 26 27  2  0
 26 53  1  0
 27 28  1  0
 27 54  1  0
 28 55  1  0
 29 30  1  0
 29 56  1  0
 30 31  1  0
 31 32  1  0
 32 57  1  6
 32 58  1  0
 32 59  1  0
M  END
$$$$
