ZINC000028207182
     RDKit          3D

 43 43  0  0  1  0  0  0  0  0999 V2000
   -0.0187    1.5258    0.0104 C   0  0  1  0  0  0  0  0  0  0  0  0
    0.0021   -0.0041    0.0020 C   0  0  1  0  0  0  0  0  0  0  0  0
   -1.4333   -0.5336    0.0129 C   0  0  2  0  0  0  0  0  0  0  0  0
   -1.9701   -0.1109    0.8621 H   0  0  0  0  0  0  0  0  0  0  0  0
   -1.4133   -2.0590    0.1302 C   0  0  1  0  0  0  0  0  0  0  0  0
   -2.1054   -0.1483   -1.2305 N   0  0  0  0  0  0  0  0  0  0  0  0
   -3.4483   -0.0395   -1.2649 C   0  0  0  0  0  0  0  0  0  0  0  0
   -4.1004   -0.2606   -0.2665 O   0  0  0  0  0  0  0  0  0  0  0  0
   -4.1397    0.3569   -2.5439 C   0  0  1  0  0  0  0  0  0  0  0  0
   -5.5515    0.4032   -2.3277 O   0  0  0  0  0  0  0  0  0  0  0  0
   -6.3273    0.7471   -3.3892 C   0  0  0  0  0  0  0  0  0  0  0  0
   -5.7422    1.0285   -4.6152 C   0  0  0  0  0  0  0  0  0  0  0  0
   -6.5330    1.3774   -5.6928 C   0  0  0  0  0  0  0  0  0  0  0  0
   -7.9066    1.4467   -5.5501 C   0  0  0  0  0  0  0  0  0  0  0  0
   -8.9124    1.8926   -6.9263 S   0  0  1  0  0  0  0  0  0  0  0  0
  -10.1222    2.4088   -6.3886 O   0  0  0  0  0  0  0  0  0  0  0  0
   -8.0787    2.6286   -7.8109 O   0  0  0  0  0  0  0  0  0  0  0  0
   -9.3114    0.4927   -7.7159 N   0  0  0  0  0  0  0  0  0  0  0  0
  -10.5251   -0.2381   -7.3432 C   0  0  1  0  0  0  0  0  0  0  0  0
   -8.4505   -0.0150   -8.7871 C   0  0  1  0  0  0  0  0  0  0  0  0
   -8.4921    1.1663   -4.3294 C   0  0  0  0  0  0  0  0  0  0  0  0
   -7.7061    0.8118   -3.2501 C   0  0  0  0  0  0  0  0  0  0  0  0
    1.0039    1.9031    0.0027 H   0  0  0  0  0  0  0  0  0  0  0  0
   -0.5459    1.8868   -0.8726 H   0  0  0  0  0  0  0  0  0  0  0  0
   -0.5289    1.8773    0.9072 H   0  0  0  0  0  0  0  0  0  0  0  0
    0.5123   -0.3556   -0.8948 H   0  0  0  0  0  0  0  0  0  0  0  0
    0.5293   -0.3651    0.8851 H   0  0  0  0  0  0  0  0  0  0  0  0
   -2.4359   -2.4363    0.1380 H   0  0  0  0  0  0  0  0  0  0  0  0
   -0.8764   -2.4817   -0.7190 H   0  0  0  0  0  0  0  0  0  0  0  0
   -0.9132   -2.3457    1.0553 H   0  0  0  0  0  0  0  0  0  0  0  0
   -1.5839    0.0285   -2.0291 H   0  0  0  0  0  0  0  0  0  0  0  0
   -3.7878    1.3396   -2.8577 H   0  0  0  0  0  0  0  0  0  0  0  0
   -3.9148   -0.3745   -3.3202 H   0  0  0  0  0  0  0  0  0  0  0  0
   -4.6693    0.9752   -4.7270 H   0  0  0  0  0  0  0  0  0  0  0  0
   -6.0780    1.5966   -6.6474 H   0  0  0  0  0  0  0  0  0  0  0  0
  -11.3636    0.1221   -7.9392 H   0  0  0  0  0  0  0  0  0  0  0  0
  -10.3793   -1.3025   -7.5272 H   0  0  0  0  0  0  0  0  0  0  0  0
  -10.7356   -0.0777   -6.2858 H   0  0  0  0  0  0  0  0  0  0  0  0
   -7.6996   -0.6823   -8.3643 H   0  0  0  0  0  0  0  0  0  0  0  0
   -9.0553   -0.5608   -9.5113 H   0  0  0  0  0  0  0  0  0  0  0  0
   -7.9563    0.8206   -9.2828 H   0  0  0  0  0  0  0  0  0  0  0  0
   -9.5653    1.2207   -4.2205 H   0  0  0  0  0  0  0  0  0  0  0  0
   -8.1640    0.5928   -2.2968 H   0  0  0  0  0  0  0  0  0  0  0  0
  1  2  1  0
  1 23  1  6
  1 24  1  0
  1 25  1  0
  2  3  1  0
  2 26  1  6
  2 27  1  0
  3  4  1  1
  3  5  1  0
  3  6  1  0
  5 28  1  1
  5 29  1  0
  5 30  1  0
  6  7  1  0
  6 31  1  0
  7  8  2  0
  7  9  1  0
  9 10  1  0
  9 32  1  6
  9 33  1  0
 10 11  1  0
 11 22  2  0
 11 12  1  0
 12 13  2  0
 12 34  1  0
 13 14  1  0
 13 35  1  0
 14 15  1  0
 14 21  2  0
 15 16  2  0
 15 17  2  0
 15 18  1  6
 18 19  1  0
 18 20  1  0
 19 36  1  6
 19 37  1  0
 19 38  1  0
 20 39  1  1
 20 40  1  0
 20 41  1  0
 21 22  1  0
 21 42  1  0
 22 43  1  0
M  END
$$$$
