ZINC000085597987
     RDKit          3D

 51 53  0  0  0  0  0  0  0  0999 V2000
    0.0146    1.5034    0.0107 C   0  0  1  0  0  0  0  0  0  0  0  0
    0.0239   -0.0035    0.0023 C   0  0  0  0  0  0  0  0  0  0  0  0
    0.0232   -0.7852   -1.1040 C   0  0  0  0  0  0  0  0  0  0  0  0
    0.0121   -0.2206   -2.7731 S   0  0  1  0  0  0  0  0  0  0  0  0
   -0.5294   -1.2792   -3.5512 O   0  0  0  0  0  0  0  0  0  0  0  0
   -0.5401    1.0885   -2.7502 O   0  0  0  0  0  0  0  0  0  0  0  0
    1.5908   -0.0539   -3.2446 N   0  0  0  0  0  0  0  0  0  0  0  0
    2.3009    1.2171   -3.0471 C   0  0  1  0  0  0  0  0  0  0  0  0
    3.5989    0.9429   -2.2811 C   0  0  1  0  0  0  0  0  0  0  0  0
    4.4099   -0.1212   -3.0240 C   0  0  1  0  0  0  0  0  0  0  0  0
    3.6060   -1.4216   -3.0932 C   0  0  1  0  0  0  0  0  0  0  0  0
    2.3099   -1.1762   -3.8629 C   0  0  1  0  0  0  0  0  0  0  0  0
    0.0335   -2.1197   -0.6864 C   0  0  0  0  0  0  0  0  0  0  0  0
    0.0370   -3.3363   -1.5757 C   0  0  1  0  0  0  0  0  0  0  0  0
    0.0404   -2.1126    0.6925 C   0  0  0  0  0  0  0  0  0  0  0  0
    0.0521   -3.2910    1.5653 C   0  0  0  0  0  0  0  0  0  0  0  0
    0.0566   -4.4073    1.0805 O   0  0  0  0  0  0  0  0  0  0  0  0
    0.0579   -3.1378    2.9043 N   0  0  0  0  0  0  0  0  0  0  0  0
   -0.0286   -4.2581    3.7366 C   0  0  0  0  0  0  0  0  0  0  0  0
   -0.7256   -4.1822    4.9356 C   0  0  0  0  0  0  0  0  0  0  0  0
   -0.8095   -5.2907    5.7551 C   0  0  0  0  0  0  0  0  0  0  0  0
   -0.2003   -6.4751    5.3833 C   0  0  0  0  0  0  0  0  0  0  0  0
   -0.2935   -7.6825    6.2802 C   0  0  1  0  0  0  0  0  0  0  0  0
   -1.4261   -8.4299    5.9399 F   0  0  0  0  0  0  0  0  0  0  0  0
    0.8509   -8.4713    6.1209 F   0  0  0  0  0  0  0  0  0  0  0  0
   -0.3919   -7.2672    7.6125 F   0  0  0  0  0  0  0  0  0  0  0  0
    0.4940   -6.5542    4.1899 C   0  0  0  0  0  0  0  0  0  0  0  0
    0.5773   -5.4509    3.3634 C   0  0  0  0  0  0  0  0  0  0  0  0
    0.0402   -0.7979    1.1004 N   0  0  0  0  0  0  0  0  0  0  0  0
    1.0400    1.8731    0.0025 H   0  0  0  0  0  0  0  0  0  0  0  0
   -0.5103    1.8685   -0.8721 H   0  0  0  0  0  0  0  0  0  0  0  0
   -0.4925    1.8586    0.9077 H   0  0  0  0  0  0  0  0  0  0  0  0
    2.5345    1.6594   -4.0155 H   0  0  0  0  0  0  0  0  0  0  0  0
    1.6749    1.8999   -2.4727 H   0  0  0  0  0  0  0  0  0  0  0  0
    4.1814    1.8616   -2.2117 H   0  0  0  0  0  0  0  0  0  0  0  0
    3.3615    0.5856   -1.2791 H   0  0  0  0  0  0  0  0  0  0  0  0
    4.6258    0.2264   -4.0343 H   0  0  0  0  0  0  0  0  0  0  0  0
    5.3454   -0.3004   -2.4942 H   0  0  0  0  0  0  0  0  0  0  0  0
    4.1935   -2.1859   -3.6019 H   0  0  0  0  0  0  0  0  0  0  0  0
    3.3685   -1.7567   -2.0835 H   0  0  0  0  0  0  0  0  0  0  0  0
    1.6898   -2.0720   -3.8295 H   0  0  0  0  0  0  0  0  0  0  0  0
    2.5414   -0.9279   -4.8987 H   0  0  0  0  0  0  0  0  0  0  0  0
    1.0654   -3.6231   -1.7950 H   0  0  0  0  0  0  0  0  0  0  0  0
   -0.4693   -4.1580   -1.0693 H   0  0  0  0  0  0  0  0  0  0  0  0
   -0.4827   -3.1077   -2.5062 H   0  0  0  0  0  0  0  0  0  0  0  0
    0.1221   -2.2504    3.2906 H   0  0  0  0  0  0  0  0  0  0  0  0
   -1.2010   -3.2573    5.2269 H   0  0  0  0  0  0  0  0  0  0  0  0
   -1.3513   -5.2324    6.6876 H   0  0  0  0  0  0  0  0  0  0  0  0
    0.9684   -7.4807    3.9022 H   0  0  0  0  0  0  0  0  0  0  0  0
    1.1197   -5.5133    2.4315 H   0  0  0  0  0  0  0  0  0  0  0  0
    0.0448   -0.4911    2.0206 H   0  0  0  0  0  0  0  0  0  0  0  0
  1  2  1  0
  1 30  1  6
  1 31  1  0
  1 32  1  0
  2 29  1  0
  2  3  2  0
  3  4  1  0
  3 13  1  0
  4  5  2  0
  4  6  2  0
  4  7  1  6
  7 12  1  0
  7  8  1  0
  8  9  1  0
  8 33  1  6
  8 34  1  0
  9 10  1  0
  9 35  1  1
  9 36  1  0
 10 11  1  0
 10 37  1  6
 10 38  1  0
 11 12  1  0
 11 39  1  6
 11 40  1  0
 12 41  1  6
 12 42  1  0
 13 14  1  0
 13 15  2  0
 14 43  1  6
 14 44  1  0
 14 45  1  0
 15 16  1  0
 15 29  1  0
 16 17  2  0
 16 18  1  0
 18 19  1  0
 18 46  1  0
 19 28  2  0
 19 20  1  0
 20 21  2  0
 20 47  1  0
 21 22  1  0
 21 48  1  0
 22 23  1  0
 22 27  2  0
 23 24  1  6
 23 25  1  0
 23 26  1  0
 27 28  1  0
 27 49  1  0
 28 50  1  0
 29 51  1  0
M  END
$$$$
