ZINC000089904834
     RDKit          3D

 51 53  0  0  1  0  0  0  0  0999 V2000
    4.4170   -0.3030   -9.9532 C   0  0  1  0  0  0  0  0  0  0  0  0
    5.2549   -0.9211   -8.9745 O   0  0  0  0  0  0  0  0  0  0  0  0
    4.6588   -1.3378   -7.8264 C   0  0  0  0  0  0  0  0  0  0  0  0
    3.2944   -1.1607   -7.6481 C   0  0  0  0  0  0  0  0  0  0  0  0
    2.6908   -1.5856   -6.4804 C   0  0  0  0  0  0  0  0  0  0  0  0
    3.4453   -2.1865   -5.4897 C   0  0  0  0  0  0  0  0  0  0  0  0
    2.7842   -2.6486   -4.2167 C   0  0  1  0  0  0  0  0  0  0  0  0
    3.2364   -1.7605   -3.0558 C   0  0  1  0  0  0  0  0  0  0  0  0
    1.3649   -2.5616   -4.3583 O   0  0  0  0  0  0  0  0  0  0  0  0
    3.1806   -4.0990   -3.9337 C   0  0  2  0  0  0  0  0  0  0  0  0
    2.3460   -4.6282   -3.4737 H   0  0  0  0  0  0  0  0  0  0  0  0
    4.4056   -4.1349   -2.9959 C   0  0  1  0  0  0  0  0  0  0  0  0
    5.2387   -5.3172   -3.5574 C   0  0  1  0  0  0  0  0  0  0  0  0
    4.9782   -5.1862   -5.0789 C   0  0  1  0  0  0  0  0  0  0  0  0
    3.5660   -4.7655   -5.1862 N   0  0  0  0  0  0  0  0  0  0  0  0
    2.5851   -5.0039   -6.4989 S   0  0  1  0  0  0  0  0  0  0  0  0
    1.6509   -3.9331   -6.5015 O   0  0  0  0  0  0  0  0  0  0  0  0
    3.4435   -5.2891   -7.5948 O   0  0  0  0  0  0  0  0  0  0  0  0
    1.6583   -6.4719   -6.1977 C   0  0  0  0  0  0  0  0  0  0  0  0
    2.1560   -7.6978   -6.5982 C   0  0  0  0  0  0  0  0  0  0  0  0
    1.4289   -8.8495   -6.3620 C   0  0  0  0  0  0  0  0  0  0  0  0
    0.2044   -8.7754   -5.7248 C   0  0  0  0  0  0  0  0  0  0  0  0
   -0.5885  -10.0309   -5.4677 C   0  0  1  0  0  0  0  0  0  0  0  0
   -0.2350  -10.5586   -4.2211 F   0  0  0  0  0  0  0  0  0  0  0  0
   -1.9546   -9.7297   -5.4762 F   0  0  0  0  0  0  0  0  0  0  0  0
   -0.3118  -10.9700   -6.4670 F   0  0  0  0  0  0  0  0  0  0  0  0
   -0.2927   -7.5496   -5.3231 C   0  0  0  0  0  0  0  0  0  0  0  0
    0.4362   -6.3983   -5.5559 C   0  0  0  0  0  0  0  0  0  0  0  0
    4.8051   -2.3645   -5.6652 C   0  0  0  0  0  0  0  0  0  0  0  0
    5.4126   -1.9461   -6.8333 C   0  0  0  0  0  0  0  0  0  0  0  0
    3.6423   -1.0043  -10.2633 H   0  0  0  0  0  0  0  0  0  0  0  0
    3.9526    0.5854   -9.5251 H   0  0  0  0  0  0  0  0  0  0  0  0
    5.0168   -0.0187  -10.8177 H   0  0  0  0  0  0  0  0  0  0  0  0
    2.7048   -0.6908   -8.4213 H   0  0  0  0  0  0  0  0  0  0  0  0
    1.6287   -1.4480   -6.3411 H   0  0  0  0  0  0  0  0  0  0  0  0
    2.8390   -0.7547   -3.1916 H   0  0  0  0  0  0  0  0  0  0  0  0
    2.8670   -2.1735   -2.1172 H   0  0  0  0  0  0  0  0  0  0  0  0
    4.3254   -1.7206   -3.0316 H   0  0  0  0  0  0  0  0  0  0  0  0
    1.0023   -3.1363   -5.0462 H   0  0  0  0  0  0  0  0  0  0  0  0
    4.9673   -3.2029   -3.0593 H   0  0  0  0  0  0  0  0  0  0  0  0
    4.0993   -4.3325   -1.9686 H   0  0  0  0  0  0  0  0  0  0  0  0
    6.2974   -5.1920   -3.3301 H   0  0  0  0  0  0  0  0  0  0  0  0
    4.8694   -6.2701   -3.1784 H   0  0  0  0  0  0  0  0  0  0  0  0
    5.6342   -4.4313   -5.5124 H   0  0  0  0  0  0  0  0  0  0  0  0
    5.1251   -6.1466   -5.5729 H   0  0  0  0  0  0  0  0  0  0  0  0
    3.1126   -7.7558   -7.0960 H   0  0  0  0  0  0  0  0  0  0  0  0
    1.8174   -9.8072   -6.6755 H   0  0  0  0  0  0  0  0  0  0  0  0
   -1.2492   -7.4918   -4.8250 H   0  0  0  0  0  0  0  0  0  0  0  0
    0.0479   -5.4407   -5.2421 H   0  0  0  0  0  0  0  0  0  0  0  0
    5.3923   -2.8344   -4.8901 H   0  0  0  0  0  0  0  0  0  0  0  0
    6.4749   -2.0853   -6.9699 H   0  0  0  0  0  0  0  0  0  0  0  0
  1  2  1  0
  1 31  1  6
  1 32  1  0
  1 33  1  0
  2  3  1  0
  3 30  2  0
  3  4  1  0
  4  5  2  0
  4 34  1  0
  5  6  1  0
  5 35  1  0
  6 29  2  0
  7  6  1  0
  7  8  1  0
  7  9  1  6
  7 10  1  0
  8 36  1  6
  8 37  1  0
  8 38  1  0
  9 39  1  0
 10 11  1  1
 10 15  1  0
 10 12  1  0
 12 13  1  0
 12 40  1  1
 12 41  1  0
 13 14  1  0
 13 42  1  6
 13 43  1  0
 14 15  1  0
 14 44  1  6
 14 45  1  0
 16 15  1  1
 16 17  2  0
 16 18  2  0
 16 19  1  0
 19 28  2  0
 19 20  1  0
 20 21  2  0
 20 46  1  0
 21 22  1  0
 21 47  1  0
 22 23  1  0
 22 27  2  0
 23 24  1  1
 23 25  1  0
 23 26  1  0
 27 28  1  0
 27 48  1  0
 28 49  1  0
 29 30  1  0
 29 50  1  0
 30 51  1  0
M  END
$$$$
