ZINC000012799504
     RDKit          3D

 47 48  0  0  0  0  0  0  0  0999 V2000
    0.2576    1.4816    0.4590 C   0  0  1  0  0  0  0  0  0  0  0  0
    0.2071   -0.0438    0.3516 C   0  0  1  0  0  0  0  0  0  0  0  0
   -1.1804   -0.4744    0.1629 N   0  0  0  0  0  0  0  0  0  0  0  0
   -1.7629   -0.5008   -1.1811 C   0  0  1  0  0  0  0  0  0  0  0  0
   -1.4134   -1.8254   -1.8624 C   0  0  1  0  0  0  0  0  0  0  0  0
   -2.0904   -0.9314    1.4689 S   0  0  1  0  0  0  0  0  0  0  0  0
   -3.1131   -1.7812    0.9677 O   0  0  0  0  0  0  0  0  0  0  0  0
   -1.1726   -1.3310    2.4774 O   0  0  0  0  0  0  0  0  0  0  0  0
   -2.8965    0.5138    2.0741 C   0  0  0  0  0  0  0  0  0  0  0  0
   -2.2793    1.2986    3.0308 C   0  0  0  0  0  0  0  0  0  0  0  0
   -2.9085    2.4320    3.5073 C   0  0  0  0  0  0  0  0  0  0  0  0
   -4.1622    2.7833    3.0243 C   0  0  0  0  0  0  0  0  0  0  0  0
   -4.8022    3.9312    3.5046 N   0  0  0  0  0  0  0  0  0  0  0  0
   -4.0755    5.0093    3.8595 C   0  0  0  0  0  0  0  0  0  0  0  0
   -2.8770    5.0208    3.6736 O   0  0  0  0  0  0  0  0  0  0  0  0
   -4.7520    6.2006    4.4875 C   0  0  1  0  0  0  0  0  0  0  0  0
   -3.7778    7.2067    4.7715 O   0  0  0  0  0  0  0  0  0  0  0  0
   -4.2256    8.3550    5.3442 C   0  0  0  0  0  0  0  0  0  0  0  0
   -5.5741    8.5077    5.6321 C   0  0  0  0  0  0  0  0  0  0  0  0
   -6.0271    9.6757    6.2142 C   0  0  0  0  0  0  0  0  0  0  0  0
   -5.1373   10.6927    6.5096 C   0  0  0  0  0  0  0  0  0  0  0  0
   -5.8277   12.4628    7.3924 I   0  0  0  0  0  0  0  0  0  0  0  0
   -3.7924   10.5426    6.2235 C   0  0  0  0  0  0  0  0  0  0  0  0
   -3.3341    9.3738    5.6470 C   0  0  0  0  0  0  0  0  0  0  0  0
   -4.7792    1.9933    2.0632 C   0  0  0  0  0  0  0  0  0  0  0  0
   -4.1426    0.8638    1.5873 C   0  0  0  0  0  0  0  0  0  0  0  0
    1.2899    1.8020    0.5994 H   0  0  0  0  0  0  0  0  0  0  0  0
   -0.1389    1.9235   -0.4551 H   0  0  0  0  0  0  0  0  0  0  0  0
   -0.3423    1.8060    1.3093 H   0  0  0  0  0  0  0  0  0  0  0  0
    0.8070   -0.3682   -0.4987 H   0  0  0  0  0  0  0  0  0  0  0  0
    0.6036   -0.4857    1.2657 H   0  0  0  0  0  0  0  0  0  0  0  0
   -2.8462   -0.4038   -1.1095 H   0  0  0  0  0  0  0  0  0  0  0  0
   -1.3619    0.3261   -1.7671 H   0  0  0  0  0  0  0  0  0  0  0  0
   -0.3301   -1.9225   -1.9340 H   0  0  0  0  0  0  0  0  0  0  0  0
   -1.8144   -2.6524   -1.2763 H   0  0  0  0  0  0  0  0  0  0  0  0
   -1.8468   -1.8451   -2.8624 H   0  0  0  0  0  0  0  0  0  0  0  0
   -1.3043    1.0248    3.4060 H   0  0  0  0  0  0  0  0  0  0  0  0
   -2.4262    3.0441    4.2550 H   0  0  0  0  0  0  0  0  0  0  0  0
   -5.7689    3.9510    3.5821 H   0  0  0  0  0  0  0  0  0  0  0  0
   -5.4968    6.6000    3.7992 H   0  0  0  0  0  0  0  0  0  0  0  0
   -5.2396    5.8953    5.4133 H   0  0  0  0  0  0  0  0  0  0  0  0
   -6.2693    7.7141    5.4010 H   0  0  0  0  0  0  0  0  0  0  0  0
   -7.0768    9.7950    6.4385 H   0  0  0  0  0  0  0  0  0  0  0  0
   -3.0995   11.3380    6.4550 H   0  0  0  0  0  0  0  0  0  0  0  0
   -2.2838    9.2569    5.4241 H   0  0  0  0  0  0  0  0  0  0  0  0
   -5.7542    2.2638    1.6856 H   0  0  0  0  0  0  0  0  0  0  0  0
   -4.6219    0.2489    0.8399 H   0  0  0  0  0  0  0  0  0  0  0  0
  1  2  1  0
  1 27  1  1
  1 28  1  0
  1 29  1  0
  2  3  1  0
  2 30  1  6
  2 31  1  0
  3  4  1  0
  6  3  1  6
  4  5  1  0
  4 32  1  1
  4 33  1  0
  5 34  1  6
  5 35  1  0
  5 36  1  0
  6  7  2  0
  6  8  2  0
  6  9  1  0
  9 26  2  0
  9 10  1  0
 10 11  2  0
 10 37  1  0
 11 12  1  0
 11 38  1  0
 12 13  1  0
 12 25  2  0
 13 14  1  0
 13 39  1  0
 14 15  2  0
 14 16  1  0
 16 17  1  0
 16 40  1  6
 16 41  1  0
 17 18  1  0
 18 24  2  0
 18 19  1  0
 19 20  2  0
 19 42  1  0
 20 21  1  0
 20 43  1  0
 21 22  1  0
 21 23  2  0
 23 24  1  0
 23 44  1  0
 24 45  1  0
 25 26  1  0
 25 46  1  0
 26 47  1  0
M  END
$$$$
