ZINC000008699061
     RDKit          3D

 37 38  0  0  0  0  0  0  0  0999 V2000
   -1.9459    2.2402   -2.2463 O   0  0  0  0  0  0  0  0  0  0  0  0
   -1.1245    2.4789   -1.3775 C   0  0  0  0  0  0  0  0  0  0  0  0
   -0.1397    3.1491   -1.6371 O   0  0  0  0  0  0  0  0  0  0  0  0
   -1.3296    1.9507    0.0190 C   0  0  1  0  0  0  0  0  0  0  0  0
   -2.5076    1.0733    0.0425 N   0  0  0  0  0  0  0  0  0  0  0  0
   -2.3399   -0.0578   -0.8798 C   0  0  1  0  0  0  0  0  0  0  0  0
   -3.5011   -1.0404   -0.6941 C   0  0  1  0  0  0  0  0  0  0  0  0
   -4.7652   -0.3025   -0.8382 N   0  0  0  0  0  0  0  0  0  0  0  0
   -5.9489   -0.8369   -1.8656 S   0  0  1  0  0  0  0  0  0  0  0  0
   -6.7355    0.2992   -2.1970 O   0  0  0  0  0  0  0  0  0  0  0  0
   -5.3010   -1.6443   -2.8390 O   0  0  0  0  0  0  0  0  0  0  0  0
   -6.9942   -1.9135   -0.9420 C   0  0  0  0  0  0  0  0  0  0  0  0
   -6.7139   -3.2658   -0.8825 C   0  0  0  0  0  0  0  0  0  0  0  0
   -7.5339   -4.1104   -0.1580 C   0  0  0  0  0  0  0  0  0  0  0  0
   -8.6340   -3.6027    0.5076 C   0  0  0  0  0  0  0  0  0  0  0  0
   -9.5282   -4.5235    1.2971 C   0  0  1  0  0  0  0  0  0  0  0  0
   -9.0638   -4.6086    2.6140 F   0  0  0  0  0  0  0  0  0  0  0  0
  -10.8338   -4.0209    1.2946 F   0  0  0  0  0  0  0  0  0  0  0  0
   -9.5172   -5.7959    0.7156 F   0  0  0  0  0  0  0  0  0  0  0  0
   -8.9135   -2.2501    0.4492 C   0  0  0  0  0  0  0  0  0  0  0  0
   -8.0913   -1.4049   -0.2722 C   0  0  0  0  0  0  0  0  0  0  0  0
   -4.9502    0.9224   -0.0453 C   0  0  1  0  0  0  0  0  0  0  0  0
   -3.7320    1.8277   -0.2565 C   0  0  1  0  0  0  0  0  0  0  0  0
   -0.4497    1.3859    0.3267 H   0  0  0  0  0  0  0  0  0  0  0  0
   -1.4840    2.7845    0.7038 H   0  0  0  0  0  0  0  0  0  0  0  0
   -2.3337    0.3079   -1.9066 H   0  0  0  0  0  0  0  0  0  0  0  0
   -1.3980   -0.5636   -0.6676 H   0  0  0  0  0  0  0  0  0  0  0  0
   -3.4446   -1.8215   -1.4522 H   0  0  0  0  0  0  0  0  0  0  0  0
   -3.4484   -1.4859    0.2993 H   0  0  0  0  0  0  0  0  0  0  0  0
   -5.8544   -3.6625   -1.4025 H   0  0  0  0  0  0  0  0  0  0  0  0
   -7.3153   -5.1671   -0.1121 H   0  0  0  0  0  0  0  0  0  0  0  0
   -9.7728   -1.8534    0.9695 H   0  0  0  0  0  0  0  0  0  0  0  0
   -8.3097   -0.3482   -0.3178 H   0  0  0  0  0  0  0  0  0  0  0  0
   -5.8518    1.4389   -0.3745 H   0  0  0  0  0  0  0  0  0  0  0  0
   -5.0369    0.6655    1.0105 H   0  0  0  0  0  0  0  0  0  0  0  0
   -3.7997    2.6893    0.4076 H   0  0  0  0  0  0  0  0  0  0  0  0
   -3.7064    2.1672   -1.2920 H   0  0  0  0  0  0  0  0  0  0  0  0
  1  2  2  0
  2  3  1  0
  2  4  1  0
  4  5  1  0
  4 24  1  1
  4 25  1  0
  5 23  1  0
  5  6  1  0
  6  7  1  0
  6 26  1  6
  6 27  1  0
  7  8  1  0
  7 28  1  6
  7 29  1  0
  9  8  1  1
  8 22  1  0
  9 10  2  0
  9 11  2  0
  9 12  1  0
 12 21  2  0
 12 13  1  0
 13 14  2  0
 13 30  1  0
 14 15  1  0
 14 31  1  0
 15 16  1  0
 15 20  2  0
 16 17  1  1
 16 18  1  0
 16 19  1  0
 20 21  1  0
 20 32  1  0
 21 33  1  0
 22 23  1  0
 22 34  1  6
 22 35  1  0
 23 36  1  1
 23 37  1  0
M  END
$$$$
