ZINC000007794231
     RDKit          3D

 44 46  0  0  0  0  0  0  0  0999 V2000
    0.0021   -0.0041    0.0020 O   0  0  0  0  0  0  0  0  0  0  0  0
   -0.0144    1.2086    0.0087 C   0  0  0  0  0  0  0  0  0  0  0  0
    1.2803    1.9798    0.0005 C   0  0  1  0  0  0  0  0  0  0  0  0
    1.7288    2.4455    1.3958 C   0  0  1  0  0  0  0  0  0  0  0  0
    2.4677    1.1026    1.5201 C   0  0  1  0  0  0  0  0  0  0  0  0
    2.5305    1.0845   -0.0163 C   0  0  1  0  0  0  0  0  0  0  0  0
   -1.1906    1.8666    0.0178 N   0  0  0  0  0  0  0  0  0  0  0  0
   -1.2258    3.3358    0.0198 C   0  0  1  0  0  0  0  0  0  0  0  0
   -2.0742    3.8073   -1.1677 C   0  0  1  0  0  0  0  0  0  0  0  0
   -3.3445    3.0683   -1.1600 N   0  0  0  0  0  0  0  0  0  0  0  0
   -4.7897    3.8768   -1.1499 S   0  0  1  0  0  0  0  0  0  0  0  0
   -5.7465    2.9815   -0.6000 O   0  0  0  0  0  0  0  0  0  0  0  0
   -4.5263    5.1629   -0.6061 O   0  0  0  0  0  0  0  0  0  0  0  0
   -5.2559    4.1328   -2.8297 C   0  0  0  0  0  0  0  0  0  0  0  0
   -4.8496    5.2754   -3.4933 C   0  0  0  0  0  0  0  0  0  0  0  0
   -5.2154    5.4763   -4.8111 C   0  0  0  0  0  0  0  0  0  0  0  0
   -5.9870    4.5344   -5.4656 C   0  0  0  0  0  0  0  0  0  0  0  0
   -6.3861    4.7536   -6.9021 C   0  0  1  0  0  0  0  0  0  0  0  0
   -5.4155    4.2020   -7.7452 F   0  0  0  0  0  0  0  0  0  0  0  0
   -7.6183    4.1366   -7.1432 F   0  0  0  0  0  0  0  0  0  0  0  0
   -6.4951    6.1259   -7.1516 F   0  0  0  0  0  0  0  0  0  0  0  0
   -6.3922    3.3912   -4.8024 C   0  0  0  0  0  0  0  0  0  0  0  0
   -6.0232    3.1885   -3.4857 C   0  0  0  0  0  0  0  0  0  0  0  0
   -3.3093    1.5991   -1.1620 C   0  0  1  0  0  0  0  0  0  0  0  0
   -2.4610    1.1276    0.0199 C   0  0  1  0  0  0  0  0  0  0  0  0
    1.2982    2.7688   -0.7513 H   0  0  0  0  0  0  0  0  0  0  0  0
    2.3934    3.3092    1.3751 H   0  0  0  0  0  0  0  0  0  0  0  0
    0.9074    2.5590    2.1032 H   0  0  0  0  0  0  0  0  0  0  0  0
    3.4449    1.1843    1.9961 H   0  0  0  0  0  0  0  0  0  0  0  0
    1.8559    0.3050    1.9415 H   0  0  0  0  0  0  0  0  0  0  0  0
    2.3563    0.0993   -0.4488 H   0  0  0  0  0  0  0  0  0  0  0  0
    3.4143    1.5762   -0.4230 H   0  0  0  0  0  0  0  0  0  0  0  0
   -1.6699    3.6898    0.9501 H   0  0  0  0  0  0  0  0  0  0  0  0
   -0.2126    3.7261   -0.0765 H   0  0  0  0  0  0  0  0  0  0  0  0
   -2.2716    4.8752   -1.0751 H   0  0  0  0  0  0  0  0  0  0  0  0
   -1.5421    3.6105   -2.0984 H   0  0  0  0  0  0  0  0  0  0  0  0
   -4.2468    6.0113   -2.9820 H   0  0  0  0  0  0  0  0  0  0  0  0
   -4.8985    6.3693   -5.3294 H   0  0  0  0  0  0  0  0  0  0  0  0
   -6.9947    2.6551   -5.3138 H   0  0  0  0  0  0  0  0  0  0  0  0
   -6.3397    2.2953   -2.9676 H   0  0  0  0  0  0  0  0  0  0  0  0
   -4.3225    1.2088   -1.0656 H   0  0  0  0  0  0  0  0  0  0  0  0
   -2.8652    1.2451   -2.0923 H   0  0  0  0  0  0  0  0  0  0  0  0
   -2.2643    0.0596   -0.0740 H   0  0  0  0  0  0  0  0  0  0  0  0
   -2.9908    1.3241    0.9519 H   0  0  0  0  0  0  0  0  0  0  0  0
  1  2  2  0
  2  3  1  0
  2  7  1  0
  3  6  1  0
  3  4  1  0
  3 26  1  6
  4  5  1  0
  4 27  1  6
  4 28  1  0
  5  6  1  0
  5 29  1  1
  5 30  1  0
  6 31  1  6
  6 32  1  0
  7 25  1  0
  7  8  1  0
  8  9  1  0
  8 33  1  1
  8 34  1  0
  9 10  1  0
  9 35  1  1
  9 36  1  0
 11 10  1  6
 10 24  1  0
 11 12  2  0
 11 13  2  0
 11 14  1  0
 14 23  2  0
 14 15  1  0
 15 16  2  0
 15 37  1  0
 16 17  1  0
 16 38  1  0
 17 18  1  0
 17 22  2  0
 18 19  1  6
 18 20  1  0
 18 21  1  0
 22 23  1  0
 22 39  1  0
 23 40  1  0
 24 25  1  0
 24 41  1  1
 24 42  1  0
 25 43  1  6
 25 44  1  0
M  END
$$$$
