ZINC000408550339
     RDKit          3D

 54 56  0  0  0  0  0  0  0  0999 V2000
   -0.0173    1.4248    0.0099 C   0  0  1  0  0  0  0  0  0  0  0  0
    0.0021   -0.0041    0.0020 O   0  0  0  0  0  0  0  0  0  0  0  0
   -1.2003   -0.6375    0.0101 C   0  0  0  0  0  0  0  0  0  0  0  0
   -2.3744    0.1010    0.0195 C   0  0  0  0  0  0  0  0  0  0  0  0
   -3.5956   -0.5454    0.0272 C   0  0  0  0  0  0  0  0  0  0  0  0
   -3.6478   -1.9268    0.0260 C   0  0  0  0  0  0  0  0  0  0  0  0
   -5.2067   -2.7480    0.0365 S   0  0  1  0  0  0  0  0  0  0  0  0
   -4.9753   -4.0413    0.5778 O   0  0  0  0  0  0  0  0  0  0  0  0
   -6.1402   -1.8299    0.5888 O   0  0  0  0  0  0  0  0  0  0  0  0
   -5.6519   -2.9747   -1.5424 N   0  0  0  0  0  0  0  0  0  0  0  0
   -5.2576   -4.1975   -2.2463 C   0  0  1  0  0  0  0  0  0  0  0  0
   -6.3901   -5.2227   -2.1614 C   0  0  1  0  0  0  0  0  0  0  0  0
   -5.9845   -6.4805   -2.8855 C   0  0  0  0  0  0  0  0  0  0  0  0
   -6.2610   -6.6224   -4.2324 C   0  0  0  0  0  0  0  0  0  0  0  0
   -5.8889   -7.7762   -4.8966 C   0  0  0  0  0  0  0  0  0  0  0  0
   -5.2399   -8.7879   -4.2140 C   0  0  0  0  0  0  0  0  0  0  0  0
   -4.9625   -8.6457   -2.8673 C   0  0  0  0  0  0  0  0  0  0  0  0
   -5.3308   -7.4901   -2.2040 C   0  0  0  0  0  0  0  0  0  0  0  0
   -6.4401   -1.9525   -2.2352 C   0  0  1  0  0  0  0  0  0  0  0  0
   -5.5173   -1.0409   -3.0022 C   0  0  0  0  0  0  0  0  0  0  0  0
   -4.3192   -1.2267   -2.9730 O   0  0  0  0  0  0  0  0  0  0  0  0
   -6.0234   -0.0190   -3.7206 N   0  0  0  0  0  0  0  0  0  0  0  0
   -5.1263    0.8672   -4.4663 C   0  0  1  0  0  0  0  0  0  0  0  0
   -5.5357    1.2520   -5.8894 C   0  0  1  0  0  0  0  0  0  0  0  0
   -5.6199    2.2846   -4.7636 C   0  0  1  0  0  0  0  0  0  0  0  0
   -2.4787   -2.6653    0.0162 C   0  0  0  0  0  0  0  0  0  0  0  0
   -1.2554   -2.0239    0.0032 C   0  0  0  0  0  0  0  0  0  0  0  0
    0.0183   -2.8292   -0.0080 C   0  0  1  0  0  0  0  0  0  0  0  0
    1.0053    1.8021    0.0021 H   0  0  0  0  0  0  0  0  0  0  0  0
   -0.5445    1.7859   -0.8732 H   0  0  0  0  0  0  0  0  0  0  0  0
   -0.5275    1.7763    0.9067 H   0  0  0  0  0  0  0  0  0  0  0  0
   -2.3342    1.1802    0.0211 H   0  0  0  0  0  0  0  0  0  0  0  0
   -4.5101    0.0291    0.0345 H   0  0  0  0  0  0  0  0  0  0  0  0
   -5.0551   -3.9656   -3.2919 H   0  0  0  0  0  0  0  0  0  0  0  0
   -4.3598   -4.6089   -1.7849 H   0  0  0  0  0  0  0  0  0  0  0  0
   -6.5926   -5.4546   -1.1158 H   0  0  0  0  0  0  0  0  0  0  0  0
   -7.2879   -4.8113   -2.6227 H   0  0  0  0  0  0  0  0  0  0  0  0
   -6.7681   -5.8319   -4.7658 H   0  0  0  0  0  0  0  0  0  0  0  0
   -6.1056   -7.8873   -5.9488 H   0  0  0  0  0  0  0  0  0  0  0  0
   -4.9498   -9.6896   -4.7328 H   0  0  0  0  0  0  0  0  0  0  0  0
   -4.4557   -9.4363   -2.3339 H   0  0  0  0  0  0  0  0  0  0  0  0
   -5.1141   -7.3789   -1.1518 H   0  0  0  0  0  0  0  0  0  0  0  0
   -7.1323   -2.4338   -2.9261 H   0  0  0  0  0  0  0  0  0  0  0  0
   -7.0019   -1.3700   -1.5049 H   0  0  0  0  0  0  0  0  0  0  0  0
   -6.9817    0.1296   -3.7440 H   0  0  0  0  0  0  0  0  0  0  0  0
   -4.0629    0.7362   -4.2662 H   0  0  0  0  0  0  0  0  0  0  0  0
   -4.7415    1.3741   -6.6259 H   0  0  0  0  0  0  0  0  0  0  0  0
   -6.4725    0.8458   -6.2709 H   0  0  0  0  0  0  0  0  0  0  0  0
   -6.6121    2.5577   -4.4043 H   0  0  0  0  0  0  0  0  0  0  0  0
   -4.8812    3.0860   -4.7594 H   0  0  0  0  0  0  0  0  0  0  0  0
   -2.5221   -3.7444    0.0150 H   0  0  0  0  0  0  0  0  0  0  0  0
    0.3153   -3.0251   -1.0383 H   0  0  0  0  0  0  0  0  0  0  0  0
    0.8060   -2.2703    0.4972 H   0  0  0  0  0  0  0  0  0  0  0  0
   -0.1452   -3.7748    0.5090 H   0  0  0  0  0  0  0  0  0  0  0  0
  1  2  1  0
  1 29  1  6
  1 30  1  0
  1 31  1  0
  2  3  1  0
  3 27  2  0
  3  4  1  0
  4  5  2  0
  4 32  1  0
  5  6  1  0
  5 33  1  0
  6  7  1  0
  6 26  2  0
  7  8  2  0
  7  9  2  0
  7 10  1  6
 10 11  1  0
 10 19  1  0
 11 12  1  0
 11 34  1  6
 11 35  1  0
 12 13  1  0
 12 36  1  1
 12 37  1  0
 13 18  2  0
 13 14  1  0
 14 15  2  0
 14 38  1  0
 15 16  1  0
 15 39  1  0
 16 17  2  0
 16 40  1  0
 17 18  1  0
 17 41  1  0
 18 42  1  0
 19 20  1  0
 19 43  1  6
 19 44  1  0
 20 21  2  0
 20 22  1  0
 22 23  1  0
 22 45  1  0
 23 25  1  0
 23 24  1  0
 23 46  1  6
 24 25  1  0
 24 47  1  6
 24 48  1  0
 25 49  1  1
 25 50  1  0
 26 27  1  0
 26 51  1  0
 27 28  1  0
 28 52  1  6
 28 53  1  0
 28 54  1  0
M  END
$$$$
