ZINC000016576829
     RDKit          3D

 56 58  0  0  1  0  0  0  0  0999 V2000
   -0.0187    1.5258    0.0104 C   0  0  1  0  0  0  0  0  0  0  0  0
    0.0021   -0.0041    0.0020 C   0  0  1  0  0  0  0  0  0  0  0  0
    0.5123   -0.3556   -0.8948 H   0  0  0  0  0  0  0  0  0  0  0  0
    0.7106   -0.4894    1.1889 N   0  0  0  0  0  0  0  0  0  0  0  0
    2.0538   -0.5998    1.1737 C   0  0  0  0  0  0  0  0  0  0  0  0
    2.6758   -0.2974    0.1774 O   0  0  0  0  0  0  0  0  0  0  0  0
    2.7826   -1.0990    2.3946 C   0  0  1  0  0  0  0  0  0  0  0  0
    4.2226   -1.1273    2.1261 N   0  0  0  0  0  0  0  0  0  0  0  0
    5.0266    0.0829    2.3137 C   0  0  1  0  0  0  0  0  0  0  0  0
    5.4506    0.1913    3.7798 C   0  0  1  0  0  0  0  0  0  0  0  0
    6.2777    1.4362    3.9727 C   0  0  0  0  0  0  0  0  0  0  0  0
    7.6500    1.3858    3.8143 C   0  0  0  0  0  0  0  0  0  0  0  0
    8.4086    2.5277    3.9913 C   0  0  0  0  0  0  0  0  0  0  0  0
    7.7949    3.7202    4.3263 C   0  0  0  0  0  0  0  0  0  0  0  0
    6.4225    3.7709    4.4838 C   0  0  0  0  0  0  0  0  0  0  0  0
    5.6634    2.6299    4.3026 C   0  0  0  0  0  0  0  0  0  0  0  0
    4.9414   -2.5273    1.6107 S   0  0  1  0  0  0  0  0  0  0  0  0
    6.2767   -2.4948    2.0956 O   0  0  0  0  0  0  0  0  0  0  0  0
    4.0321   -3.5781    1.9076 O   0  0  0  0  0  0  0  0  0  0  0  0
    5.0478   -2.4428   -0.1461 C   0  0  0  0  0  0  0  0  0  0  0  0
    4.0119   -2.9234   -0.9251 C   0  0  0  0  0  0  0  0  0  0  0  0
    4.0953   -2.8572   -2.3033 C   0  0  0  0  0  0  0  0  0  0  0  0
    5.2144   -2.3099   -2.9025 C   0  0  0  0  0  0  0  0  0  0  0  0
    6.2499   -1.8285   -2.1235 C   0  0  0  0  0  0  0  0  0  0  0  0
    6.1646   -1.8908   -0.7451 C   0  0  0  0  0  0  0  0  0  0  0  0
   -1.4117   -0.5257    0.0127 C   0  0  0  0  0  0  0  0  0  0  0  0
   -2.1228   -0.5709    1.1973 C   0  0  0  0  0  0  0  0  0  0  0  0
   -3.4197   -1.0494    1.2071 C   0  0  0  0  0  0  0  0  0  0  0  0
   -4.0056   -1.4822    0.0323 C   0  0  0  0  0  0  0  0  0  0  0  0
   -3.2949   -1.4361   -1.1525 C   0  0  0  0  0  0  0  0  0  0  0  0
   -1.9995   -0.9536   -1.1630 C   0  0  0  0  0  0  0  0  0  0  0  0
    1.0039    1.9031    0.0027 H   0  0  0  0  0  0  0  0  0  0  0  0
   -0.5459    1.8868   -0.8726 H   0  0  0  0  0  0  0  0  0  0  0  0
   -0.5289    1.8773    0.9072 H   0  0  0  0  0  0  0  0  0  0  0  0
    0.2131   -0.7312    1.9857 H   0  0  0  0  0  0  0  0  0  0  0  0
    2.5826   -0.4337    3.2345 H   0  0  0  0  0  0  0  0  0  0  0  0
    2.4385   -2.1044    2.6374 H   0  0  0  0  0  0  0  0  0  0  0  0
    5.9132    0.0316    1.6818 H   0  0  0  0  0  0  0  0  0  0  0  0
    4.4360    0.9574    2.0407 H   0  0  0  0  0  0  0  0  0  0  0  0
    4.5640    0.2426    4.4117 H   0  0  0  0  0  0  0  0  0  0  0  0
    6.0413   -0.6832    4.0528 H   0  0  0  0  0  0  0  0  0  0  0  0
    8.1295    0.4541    3.5526 H   0  0  0  0  0  0  0  0  0  0  0  0
    9.4809    2.4882    3.8682 H   0  0  0  0  0  0  0  0  0  0  0  0
    8.3877    4.6122    4.4652 H   0  0  0  0  0  0  0  0  0  0  0  0
    5.9431    4.7025    4.7458 H   0  0  0  0  0  0  0  0  0  0  0  0
    4.5912    2.6694    4.4256 H   0  0  0  0  0  0  0  0  0  0  0  0
    3.1376   -3.3510   -0.4570 H   0  0  0  0  0  0  0  0  0  0  0  0
    3.2863   -3.2333   -2.9120 H   0  0  0  0  0  0  0  0  0  0  0  0
    5.2799   -2.2588   -3.9793 H   0  0  0  0  0  0  0  0  0  0  0  0
    7.1243   -1.4012   -2.5916 H   0  0  0  0  0  0  0  0  0  0  0  0
    6.9735   -1.5147   -0.1365 H   0  0  0  0  0  0  0  0  0  0  0  0
   -1.6650   -0.2328    2.1152 H   0  0  0  0  0  0  0  0  0  0  0  0
   -3.9750   -1.0854    2.1327 H   0  0  0  0  0  0  0  0  0  0  0  0
   -5.0186   -1.8567    0.0401 H   0  0  0  0  0  0  0  0  0  0  0  0
   -3.7525   -1.7745   -2.0703 H   0  0  0  0  0  0  0  0  0  0  0  0
   -1.4442   -0.9176   -2.0886 H   0  0  0  0  0  0  0  0  0  0  0  0
  1  2  1  0
  1 32  1  6
  1 33  1  0
  1 34  1  0
  2  3  1  6
  2  4  1  0
  2 26  1  0
  4  5  1  0
  4 35  1  0
  5  6  2  0
  5  7  1  0
  7  8  1  0
  7 36  1  1
  7 37  1  0
  8  9  1  0
 17  8  1  1
  9 10  1  0
  9 38  1  6
  9 39  1  0
 10 11  1  0
 10 40  1  1
 10 41  1  0
 11 16  2  0
 11 12  1  0
 12 13  2  0
 12 42  1  0
 13 14  1  0
 13 43  1  0
 14 15  2  0
 14 44  1  0
 15 16  1  0
 15 45  1  0
 16 46  1  0
 17 18  2  0
 17 19  2  0
 17 20  1  0
 20 25  2  0
 20 21  1  0
 21 22  2  0
 21 47  1  0
 22 23  1  0
 22 48  1  0
 23 24  2  0
 23 49  1  0
 24 25  1  0
 24 50  1  0
 25 51  1  0
 26 31  2  0
 26 27  1  0
 27 28  2  0
 27 52  1  0
 28 29  1  0
 28 53  1  0
 29 30  2  0
 29 54  1  0
 30 31  1  0
 30 55  1  0
 31 56  1  0
M  END
$$$$
