ZINC000013656166
     RDKit          3D

 51 53  0  0  1  0  0  0  0  0999 V2000
   -0.0730    0.8713    0.6117 C   0  0  1  0  0  0  0  0  0  0  0  0
    0.0001   -0.5494    0.4763 O   0  0  0  0  0  0  0  0  0  0  0  0
    0.5887   -1.0324   -0.6493 C   0  0  0  0  0  0  0  0  0  0  0  0
    1.0909   -0.1570   -1.6012 C   0  0  0  0  0  0  0  0  0  0  0  0
    1.6892   -0.6506   -2.7444 C   0  0  0  0  0  0  0  0  0  0  0  0
    1.7875   -2.0157   -2.9405 C   0  0  0  0  0  0  0  0  0  0  0  0
    2.4403   -2.5514   -4.1887 C   0  0  1  0  0  0  0  0  0  0  0  0
    3.8750   -2.7290   -3.9517 N   0  0  0  0  0  0  0  0  0  0  0  0
    4.7958   -1.7837   -4.1716 C   0  0  0  0  0  0  0  0  0  0  0  0
    4.5371   -0.6737   -4.5937 O   0  0  0  0  0  0  0  0  0  0  0  0
    6.0401   -2.1991   -3.8735 N   0  0  0  0  0  0  0  0  0  0  0  0
    5.9183   -3.5886   -3.3996 C   0  0  2  0  0  0  0  0  0  0  0  0
    6.3860   -3.7042   -2.0161 N   0  0  0  0  0  0  0  0  0  0  0  0
    6.1720   -4.8415   -1.3253 C   0  0  0  0  0  0  0  0  0  0  0  0
    5.6676   -5.7984   -1.8738 O   0  0  0  0  0  0  0  0  0  0  0  0
    6.5596   -4.9242    0.1286 C   0  0  1  0  0  0  0  0  0  0  0  0
    5.7962   -3.8612    0.9212 C   0  0  1  0  0  0  0  0  0  0  0  0
    6.1897   -3.9451    2.3973 C   0  0  1  0  0  0  0  0  0  0  0  0
    5.8422   -5.3329    2.9396 C   0  0  1  0  0  0  0  0  0  0  0  0
    6.6056   -6.3960    2.1471 C   0  0  1  0  0  0  0  0  0  0  0  0
    6.2121   -6.3120    0.6709 C   0  0  1  0  0  0  0  0  0  0  0  0
    6.6981   -4.5384   -4.3110 C   0  0  1  0  0  0  0  0  0  0  0  0
    8.0660   -4.2629   -4.2106 F   0  0  0  0  0  0  0  0  0  0  0  0
    6.4588   -5.8604   -3.9207 F   0  0  0  0  0  0  0  0  0  0  0  0
    6.2825   -4.3605   -5.6349 F   0  0  0  0  0  0  0  0  0  0  0  0
    4.4296   -3.8630   -3.4797 C   0  0  0  0  0  0  0  0  0  0  0  0
    3.8576   -4.8907   -3.1857 O   0  0  0  0  0  0  0  0  0  0  0  0
    1.2882   -2.8903   -1.9930 C   0  0  0  0  0  0  0  0  0  0  0  0
    0.6937   -2.4018   -0.8457 C   0  0  0  0  0  0  0  0  0  0  0  0
    0.9336    1.2892    0.6052 H   0  0  0  0  0  0  0  0  0  0  0  0
   -0.6441    1.2865   -0.2187 H   0  0  0  0  0  0  0  0  0  0  0  0
   -0.5644    1.1219    1.5518 H   0  0  0  0  0  0  0  0  0  0  0  0
    1.0138    0.9094   -1.4489 H   0  0  0  0  0  0  0  0  0  0  0  0
    2.0803    0.0305   -3.4858 H   0  0  0  0  0  0  0  0  0  0  0  0
    1.9935   -3.5108   -4.4493 H   0  0  0  0  0  0  0  0  0  0  0  0
    2.2917   -1.8471   -5.0072 H   0  0  0  0  0  0  0  0  0  0  0  0
    6.8582   -1.6842   -3.9551 H   0  0  0  0  0  0  0  0  0  0  0  0
    6.8497   -2.9623   -1.5973 H   0  0  0  0  0  0  0  0  0  0  0  0
    7.6313   -4.7526    0.2293 H   0  0  0  0  0  0  0  0  0  0  0  0
    6.0438   -2.8724    0.5348 H   0  0  0  0  0  0  0  0  0  0  0  0
    4.7245   -4.0327    0.8205 H   0  0  0  0  0  0  0  0  0  0  0  0
    7.2614   -3.7735    2.4980 H   0  0  0  0  0  0  0  0  0  0  0  0
    5.6459   -3.1878    2.9620 H   0  0  0  0  0  0  0  0  0  0  0  0
    6.1226   -5.3927    3.9913 H   0  0  0  0  0  0  0  0  0  0  0  0
    4.7706   -5.5045    2.8390 H   0  0  0  0  0  0  0  0  0  0  0  0
    7.6773   -6.2244    2.2478 H   0  0  0  0  0  0  0  0  0  0  0  0
    6.3581   -7.3847    2.5334 H   0  0  0  0  0  0  0  0  0  0  0  0
    5.1404   -6.4836    0.5703 H   0  0  0  0  0  0  0  0  0  0  0  0
    6.7559   -7.0694    0.1063 H   0  0  0  0  0  0  0  0  0  0  0  0
    1.3665   -3.9562   -2.1483 H   0  0  0  0  0  0  0  0  0  0  0  0
    0.3038   -3.0853   -0.1060 H   0  0  0  0  0  0  0  0  0  0  0  0
  1  2  1  0
  1 30  1  1
  1 31  1  0
  1 32  1  0
  2  3  1  0
  3 29  2  0
  3  4  1  0
  4  5  2  0
  4 33  1  0
  5  6  1  0
  5 34  1  0
  6  7  1  0
  6 28  2  0
  7  8  1  0
  7 35  1  6
  7 36  1  0
  8 26  1  0
  8  9  1  0
  9 10  2  0
  9 11  1  0
 11 12  1  0
 11 37  1  0
 12 13  1  1
 12 22  1  0
 12 26  1  0
 13 14  1  0
 13 38  1  0
 14 15  2  0
 14 16  1  0
 16 21  1  0
 16 17  1  0
 16 39  1  6
 17 18  1  0
 17 40  1  6
 17 41  1  0
 18 19  1  0
 18 42  1  6
 18 43  1  0
 19 20  1  0
 19 44  1  1
 19 45  1  0
 20 21  1  0
 20 46  1  6
 20 47  1  0
 21 48  1  1
 21 49  1  0
 22 23  1  6
 22 24  1  0
 22 25  1  0
 26 27  2  0
 28 29  1  0
 28 50  1  0
 29 51  1  0
M  END
$$$$
