ZINC000408617380
     RDKit          3D

 50 51  0  0  1  0  0  0  0  0999 V2000
   -0.0173    1.4248    0.0099 C   0  0  1  0  0  0  0  0  0  0  0  0
    0.0021   -0.0041    0.0020 O   0  0  0  0  0  0  0  0  0  0  0  0
    0.6734   -0.5824    1.1231 C   0  0  1  0  0  0  0  0  0  0  0  0
    0.6327   -2.1077    1.0107 C   0  0  1  0  0  0  0  0  0  0  0  0
    1.0656   -2.5499    1.9080 H   0  0  0  0  0  0  0  0  0  0  0  0
   -0.8185   -2.5697    0.8637 C   0  0  1  0  0  0  0  0  0  0  0  0
    1.4013   -2.5316   -0.1622 N   0  0  0  0  0  0  0  0  0  0  0  0
    1.9353   -3.7683   -0.2071 C   0  0  0  0  0  0  0  0  0  0  0  0
    1.7795   -4.5302    0.7236 O   0  0  0  0  0  0  0  0  0  0  0  0
    2.7259   -4.2043   -1.4136 C   0  0  1  0  0  0  0  0  0  0  0  0
    3.1956   -5.5783   -1.2192 N   0  0  0  0  0  0  0  0  0  0  0  0
    2.3234   -6.7055   -1.5582 C   0  0  1  0  0  0  0  0  0  0  0  0
    2.4574   -7.0208   -3.0258 C   0  0  0  0  0  0  0  0  0  0  0  0
    1.6326   -6.3986   -3.9443 C   0  0  0  0  0  0  0  0  0  0  0  0
    1.7551   -6.6873   -5.2903 C   0  0  0  0  0  0  0  0  0  0  0  0
    2.7034   -7.5992   -5.7185 C   0  0  0  0  0  0  0  0  0  0  0  0
    2.8582   -7.9620   -7.4091 Cl  0  0  0  0  0  0  0  0  0  0  0  0
    3.5286   -8.2216   -4.7987 C   0  0  0  0  0  0  0  0  0  0  0  0
    3.4090   -7.9278   -3.4535 C   0  0  0  0  0  0  0  0  0  0  0  0
    4.7125   -5.8573   -0.6163 S   0  0  1  0  0  0  0  0  0  0  0  0
    5.1439   -7.0923   -1.1711 O   0  0  0  0  0  0  0  0  0  0  0  0
    5.4343   -4.6427   -0.7681 O   0  0  0  0  0  0  0  0  0  0  0  0
    4.5440   -6.1225    1.1175 C   0  0  0  0  0  0  0  0  0  0  0  0
    4.6113   -5.0525    1.9901 C   0  0  0  0  0  0  0  0  0  0  0  0
    4.4791   -5.2606    3.3503 C   0  0  0  0  0  0  0  0  0  0  0  0
    4.2791   -6.5386    3.8378 C   0  0  0  0  0  0  0  0  0  0  0  0
    4.2109   -7.6084    2.9651 C   0  0  0  0  0  0  0  0  0  0  0  0
    4.3388   -7.3998    1.6046 C   0  0  0  0  0  0  0  0  0  0  0  0
    1.0053    1.8021    0.0021 H   0  0  0  0  0  0  0  0  0  0  0  0
   -0.5445    1.7859   -0.8732 H   0  0  0  0  0  0  0  0  0  0  0  0
   -0.5275    1.7763    0.9067 H   0  0  0  0  0  0  0  0  0  0  0  0
    1.7103   -0.2468    1.1385 H   0  0  0  0  0  0  0  0  0  0  0  0
    0.1775   -0.2725    2.0430 H   0  0  0  0  0  0  0  0  0  0  0  0
   -1.2514   -2.1276   -0.0336 H   0  0  0  0  0  0  0  0  0  0  0  0
   -0.8475   -3.6564    0.7836 H   0  0  0  0  0  0  0  0  0  0  0  0
   -1.3904   -2.2544    1.7364 H   0  0  0  0  0  0  0  0  0  0  0  0
    1.5259   -1.9223   -0.9066 H   0  0  0  0  0  0  0  0  0  0  0  0
    2.0921   -4.1589   -2.2992 H   0  0  0  0  0  0  0  0  0  0  0  0
    3.5822   -3.5429   -1.5454 H   0  0  0  0  0  0  0  0  0  0  0  0
    2.6120   -7.5775   -0.9714 H   0  0  0  0  0  0  0  0  0  0  0  0
    1.2888   -6.4440   -1.3358 H   0  0  0  0  0  0  0  0  0  0  0  0
    0.8922   -5.6870   -3.6099 H   0  0  0  0  0  0  0  0  0  0  0  0
    1.1104   -6.2015   -6.0078 H   0  0  0  0  0  0  0  0  0  0  0  0
    4.2688   -8.9337   -5.1323 H   0  0  0  0  0  0  0  0  0  0  0  0
    4.0533   -8.4133   -2.7355 H   0  0  0  0  0  0  0  0  0  0  0  0
    4.7676   -4.0541    1.6092 H   0  0  0  0  0  0  0  0  0  0  0  0
    4.5325   -4.4247    4.0321 H   0  0  0  0  0  0  0  0  0  0  0  0
    4.1766   -6.7012    4.9006 H   0  0  0  0  0  0  0  0  0  0  0  0
    4.0550   -8.6069    3.3460 H   0  0  0  0  0  0  0  0  0  0  0  0
    4.2855   -8.2357    0.9227 H   0  0  0  0  0  0  0  0  0  0  0  0
  1  2  1  0
  1 29  1  6
  1 30  1  0
  1 31  1  0
  2  3  1  0
  3  4  1  0
  3 32  1  1
  3 33  1  0
  4  5  1  1
  4  6  1  0
  4  7  1  0
  6 34  1  6
  6 35  1  0
  6 36  1  0
  7  8  1  0
  7 37  1  0
  8  9  2  0
  8 10  1  0
 10 11  1  0
 10 38  1  6
 10 39  1  0
 11 12  1  0
 20 11  1  6
 12 13  1  0
 12 40  1  1
 12 41  1  0
 13 19  2  0
 13 14  1  0
 14 15  2  0
 14 42  1  0
 15 16  1  0
 15 43  1  0
 16 17  1  0
 16 18  2  0
 18 19  1  0
 18 44  1  0
 19 45  1  0
 20 21  2  0
 20 22  2  0
 20 23  1  0
 23 28  2  0
 23 24  1  0
 24 25  2  0
 24 46  1  0
 25 26  1  0
 25 47  1  0
 26 27  2  0
 26 48  1  0
 27 28  1  0
 27 49  1  0
 28 50  1  0
M  END
$$$$
