ZINC000000924342
     RDKit          3D

 54 56  0  0  1  0  0  0  0  0999 V2000
    0.3687    0.9013    0.0859 C   0  0  1  0  0  0  0  0  0  0  0  0
    0.2420   -0.5060   -0.1270 O   0  0  0  0  0  0  0  0  0  0  0  0
   -1.0148   -1.0247   -0.0945 C   0  0  0  0  0  0  0  0  0  0  0  0
   -2.1019   -0.1965    0.1316 C   0  0  0  0  0  0  0  0  0  0  0  0
   -3.3792   -0.7254    0.1639 C   0  0  0  0  0  0  0  0  0  0  0  0
   -3.5745   -2.0801   -0.0284 C   0  0  0  0  0  0  0  0  0  0  0  0
   -4.9686   -2.6513    0.0084 C   0  0  1  0  0  0  0  0  0  0  0  0
   -5.4888   -2.7580   -1.3570 N   0  0  0  0  0  0  0  0  0  0  0  0
   -5.1773   -3.9366   -2.1695 C   0  0  1  0  0  0  0  0  0  0  0  0
   -6.1789   -5.0503   -1.8577 C   0  0  1  0  0  0  0  0  0  0  0  0
   -7.1941   -4.7159   -2.0714 H   0  0  0  0  0  0  0  0  0  0  0  0
   -5.8460   -6.3194   -2.6818 C   0  0  1  0  0  0  0  0  0  0  0  0
   -6.4848   -7.4228   -1.7950 C   0  0  1  0  0  0  0  0  0  0  0  0
   -6.2631   -6.8681   -0.3714 C   0  0  1  0  0  0  0  0  0  0  0  0
   -6.0654   -5.4525   -0.4833 O   0  0  0  0  0  0  0  0  0  0  0  0
   -6.4288   -1.5464   -1.9820 S   0  0  1  0  0  0  0  0  0  0  0  0
   -7.2812   -2.1548   -2.9425 O   0  0  0  0  0  0  0  0  0  0  0  0
   -6.9141   -0.8024   -0.8728 O   0  0  0  0  0  0  0  0  0  0  0  0
   -5.3616   -0.4669   -2.8766 C   0  0  0  0  0  0  0  0  0  0  0  0
   -4.8605    0.6686   -2.2647 C   0  0  0  0  0  0  0  0  0  0  0  0
   -4.0246    1.5181   -2.9588 C   0  0  0  0  0  0  0  0  0  0  0  0
   -3.6840    1.2299   -4.2828 C   0  0  0  0  0  0  0  0  0  0  0  0
   -2.7900    2.1336   -5.0318 C   0  0  0  0  0  0  0  0  0  0  0  0
   -2.3451    3.1377   -4.4938 O   0  0  0  0  0  0  0  0  0  0  0  0
   -2.4938    1.8785   -6.1905 O   0  0  0  0  0  0  0  0  0  0  0  0
   -4.1938    0.0816   -4.8941 C   0  0  0  0  0  0  0  0  0  0  0  0
   -5.0241   -0.7617   -4.1859 C   0  0  0  0  0  0  0  0  0  0  0  0
   -2.4937   -2.9124   -0.2550 C   0  0  0  0  0  0  0  0  0  0  0  0
   -1.2120   -2.3881   -0.2939 C   0  0  0  0  0  0  0  0  0  0  0  0
   -0.1480   -3.2052   -0.5166 O   0  0  0  0  0  0  0  0  0  0  0  0
   -0.4248   -4.5948   -0.7022 C   0  0  1  0  0  0  0  0  0  0  0  0
    1.4203    1.1834    0.0343 H   0  0  0  0  0  0  0  0  0  0  0  0
   -0.1892    1.4367   -0.6825 H   0  0  0  0  0  0  0  0  0  0  0  0
   -0.0285    1.1574    1.0681 H   0  0  0  0  0  0  0  0  0  0  0  0
   -1.9519    0.8623    0.2829 H   0  0  0  0  0  0  0  0  0  0  0  0
   -4.2259   -0.0786    0.3402 H   0  0  0  0  0  0  0  0  0  0  0  0
   -4.9440   -3.6402    0.4661 H   0  0  0  0  0  0  0  0  0  0  0  0
   -5.6144   -1.9962    0.5930 H   0  0  0  0  0  0  0  0  0  0  0  0
   -5.2405   -3.6765   -3.2262 H   0  0  0  0  0  0  0  0  0  0  0  0
   -4.1687   -4.2802   -1.9396 H   0  0  0  0  0  0  0  0  0  0  0  0
   -6.3161   -6.2842   -3.6646 H   0  0  0  0  0  0  0  0  0  0  0  0
   -4.7685   -6.4600   -2.7686 H   0  0  0  0  0  0  0  0  0  0  0  0
   -7.5484   -7.5258   -2.0099 H   0  0  0  0  0  0  0  0  0  0  0  0
   -5.9676   -8.3734   -1.9258 H   0  0  0  0  0  0  0  0  0  0  0  0
   -7.1392   -7.0702    0.2448 H   0  0  0  0  0  0  0  0  0  0  0  0
   -5.3822   -7.3315    0.0730 H   0  0  0  0  0  0  0  0  0  0  0  0
   -5.1248    0.8903   -1.2413 H   0  0  0  0  0  0  0  0  0  0  0  0
   -3.6344    2.4042   -2.4801 H   0  0  0  0  0  0  0  0  0  0  0  0
   -3.9351   -0.1472   -5.9174 H   0  0  0  0  0  0  0  0  0  0  0  0
   -5.4189   -1.6497   -4.6571 H   0  0  0  0  0  0  0  0  0  0  0  0
   -2.6490   -3.9705   -0.4050 H   0  0  0  0  0  0  0  0  0  0  0  0
   -1.0782   -4.7230   -1.5652 H   0  0  0  0  0  0  0  0  0  0  0  0
    0.5087   -5.1319   -0.8703 H   0  0  0  0  0  0  0  0  0  0  0  0
   -0.9160   -4.9894    0.1872 H   0  0  0  0  0  0  0  0  0  0  0  0
  1  2  1  0
  1 32  1  1
  1 33  1  0
  1 34  1  0
  2  3  1  0
  3 29  2  0
  3  4  1  0
  4  5  2  0
  4 35  1  0
  5  6  1  0
  5 36  1  0
  6  7  1  0
  6 28  2  0
  7  8  1  0
  7 37  1  1
  7 38  1  0
  8  9  1  0
 16  8  1  1
  9 10  1  0
  9 39  1  6
  9 40  1  0
 10 11  1  1
 10 15  1  0
 10 12  1  0
 12 13  1  0
 12 41  1  6
 12 42  1  0
 13 14  1  0
 13 43  1  6
 13 44  1  0
 14 15  1  0
 14 45  1  1
 14 46  1  0
 16 17  2  0
 16 18  2  0
 16 19  1  0
 19 27  2  0
 19 20  1  0
 20 21  2  0
 20 47  1  0
 21 22  1  0
 21 48  1  0
 22 23  1  0
 22 26  2  0
 23 24  2  0
 23 25  1  0
 26 27  1  0
 26 49  1  0
 27 50  1  0
 28 29  1  0
 28 51  1  0
 29 30  1  0
 30 31  1  0
 31 52  1  6
 31 53  1  0
 31 54  1  0
M  END
$$$$
