ZINC000089929849
     RDKit          3D

 40 41  0  0  1  0  0  0  0  0999 V2000
    0.1152    1.5498    0.2708 C   0  0  1  0  0  0  0  0  0  0  0  0
    0.0757    0.0210    0.2279 C   0  0  1  0  0  0  0  0  0  0  0  0
   -0.9491   -0.3207    0.3739 H   0  0  0  0  0  0  0  0  0  0  0  0
    0.5877   -0.4654   -1.1298 C   0  0  1  0  0  0  0  0  0  0  0  0
    0.5177   -1.9932   -1.1858 C   0  0  1  0  0  0  0  0  0  0  0  0
    1.4141   -2.5819   -0.0919 C   0  0  1  0  0  0  0  0  0  0  0  0
    1.0211   -2.0069    1.2018 N   0  0  0  0  0  0  0  0  0  0  0  0
    0.6468   -2.9879    2.4823 S   0  0  1  0  0  0  0  0  0  0  0  0
   -0.2928   -2.2737    3.2737 O   0  0  0  0  0  0  0  0  0  0  0  0
    0.3864   -4.2749    1.9392 O   0  0  0  0  0  0  0  0  0  0  0  0
    2.1032   -3.1464    3.4612 C   0  0  0  0  0  0  0  0  0  0  0  0
    2.1288   -2.6448    4.7485 C   0  0  0  0  0  0  0  0  0  0  0  0
    3.2716   -2.7690    5.5168 C   0  0  0  0  0  0  0  0  0  0  0  0
    3.2982   -2.2216    6.9206 C   0  0  1  0  0  0  0  0  0  0  0  0
    2.8717   -3.2095    7.8146 F   0  0  0  0  0  0  0  0  0  0  0  0
    4.6020   -1.8312    7.2443 F   0  0  0  0  0  0  0  0  0  0  0  0
    2.4455   -1.1157    7.0062 F   0  0  0  0  0  0  0  0  0  0  0  0
    4.3895   -3.3953    4.9985 C   0  0  0  0  0  0  0  0  0  0  0  0
    4.3664   -3.8973    3.7110 C   0  0  0  0  0  0  0  0  0  0  0  0
    3.2209   -3.7786    2.9427 C   0  0  0  0  0  0  0  0  0  0  0  0
    3.1972   -4.2690    1.6841 F   0  0  0  0  0  0  0  0  0  0  0  0
    0.9664   -0.5449    1.3384 C   0  0  2  0  0  0  0  0  0  0  0  0
    1.9707   -0.1315    1.2465 H   0  0  0  0  0  0  0  0  0  0  0  0
    0.3842   -0.1789    2.7051 C   0  0  1  0  0  0  0  0  0  0  0  0
    1.2542   -0.6515    3.7356 O   0  0  0  0  0  0  0  0  0  0  0  0
    1.1401    1.8910    0.1248 H   0  0  0  0  0  0  0  0  0  0  0  0
   -0.5178    1.9520   -0.5202 H   0  0  0  0  0  0  0  0  0  0  0  0
   -0.2485    1.8957    1.2384 H   0  0  0  0  0  0  0  0  0  0  0  0
   -0.0300   -0.0442   -1.9229 H   0  0  0  0  0  0  0  0  0  0  0  0
    1.6205   -0.1440   -1.2647 H   0  0  0  0  0  0  0  0  0  0  0  0
   -0.5110   -2.3163   -1.0263 H   0  0  0  0  0  0  0  0  0  0  0  0
    0.8605   -2.3375   -2.1615 H   0  0  0  0  0  0  0  0  0  0  0  0
    1.2919   -3.6646   -0.0628 H   0  0  0  0  0  0  0  0  0  0  0  0
    2.4551   -2.3350   -0.3004 H   0  0  0  0  0  0  0  0  0  0  0  0
    1.2559   -2.1553    5.1545 H   0  0  0  0  0  0  0  0  0  0  0  0
    5.2815   -3.4920    5.5997 H   0  0  0  0  0  0  0  0  0  0  0  0
    5.2402   -4.3860    3.3060 H   0  0  0  0  0  0  0  0  0  0  0  0
    0.2866    0.9041    2.7803 H   0  0  0  0  0  0  0  0  0  0  0  0
   -0.5967   -0.6408    2.8177 H   0  0  0  0  0  0  0  0  0  0  0  0
    0.9469   -0.4541    4.6310 H   0  0  0  0  0  0  0  0  0  0  0  0
  1  2  1  0
  1 26  1  6
  1 27  1  0
  1 28  1  0
  2  3  1  1
  2 22  1  0
  2  4  1  0
  4  5  1  0
  4 29  1  6
  4 30  1  0
  5  6  1  0
  5 31  1  1
  5 32  1  0
  6  7  1  0
  6 33  1  1
  6 34  1  0
  8  7  1  6
  7 22  1  0
  8  9  2  0
  8 10  2  0
  8 11  1  0
 11 20  2  0
 11 12  1  0
 12 13  2  0
 12 35  1  0
 13 14  1  0
 13 18  1  0
 14 15  1  1
 14 16  1  0
 14 17  1  0
 18 19  2  0
 18 36  1  0
 19 20  1  0
 19 37  1  0
 20 21  1  0
 22 23  1  1
 22 24  1  0
 24 25  1  0
 24 38  1  6
 24 39  1  0
 25 40  1  0
M  END
$$$$
