ZINC000408603651
     RDKit          3D

 66 68  0  0  1  0  0  0  0  0999 V2000
   -9.0479   -6.1174    4.1559 C   0  0  1  0  0  0  0  0  0  0  0  0
   -9.2316   -4.7919    3.6545 O   0  0  0  0  0  0  0  0  0  0  0  0
   -8.2799   -4.3143    2.8100 C   0  0  0  0  0  0  0  0  0  0  0  0
   -7.1947   -5.1071    2.4666 C   0  0  0  0  0  0  0  0  0  0  0  0
   -6.2287   -4.6194    1.6075 C   0  0  0  0  0  0  0  0  0  0  0  0
   -6.3429   -3.3423    1.0907 C   0  0  0  0  0  0  0  0  0  0  0  0
   -5.1090   -2.7230   -0.0042 S   0  0  1  0  0  0  0  0  0  0  0  0
   -5.1590   -1.3064    0.0950 O   0  0  0  0  0  0  0  0  0  0  0  0
   -3.9324   -3.4788    0.2486 O   0  0  0  0  0  0  0  0  0  0  0  0
   -5.5858   -3.1011   -1.5443 N   0  0  0  0  0  0  0  0  0  0  0  0
   -5.2909   -4.4249   -2.0982 C   0  0  1  0  0  0  0  0  0  0  0  0
   -6.4778   -5.3308   -1.8937 C   0  0  0  0  0  0  0  0  0  0  0  0
   -7.4721   -4.9119   -1.3398 O   0  0  0  0  0  0  0  0  0  0  0  0
   -6.4343   -6.6065   -2.3264 N   0  0  0  0  0  0  0  0  0  0  0  0
   -7.5881   -7.4871   -2.1276 C   0  0  1  0  0  0  0  0  0  0  0  0
   -8.0696   -7.2467   -1.1797 H   0  0  0  0  0  0  0  0  0  0  0  0
   -8.5849   -7.2877   -3.2710 C   0  0  1  0  0  0  0  0  0  0  0  0
   -7.1203   -8.9437   -2.1070 C   0  0  1  0  0  0  0  0  0  0  0  0
   -6.2214   -9.1736   -0.8905 C   0  0  1  0  0  0  0  0  0  0  0  0
   -5.7607  -10.6083   -0.8702 C   0  0  0  0  0  0  0  0  0  0  0  0
   -6.5109  -11.5659   -0.2137 C   0  0  0  0  0  0  0  0  0  0  0  0
   -6.0884  -12.8819   -0.1951 C   0  0  0  0  0  0  0  0  0  0  0  0
   -4.9157  -13.2404   -0.8333 C   0  0  0  0  0  0  0  0  0  0  0  0
   -4.1659  -12.2830   -1.4906 C   0  0  0  0  0  0  0  0  0  0  0  0
   -4.5908  -10.9677   -1.5128 C   0  0  0  0  0  0  0  0  0  0  0  0
   -6.3025   -2.1118   -2.3529 C   0  0  1  0  0  0  0  0  0  0  0  0
   -5.3245   -1.3823   -3.2373 C   0  0  0  0  0  0  0  0  0  0  0  0
   -4.7921   -0.1736   -2.8293 C   0  0  0  0  0  0  0  0  0  0  0  0
   -3.8950    0.4956   -3.6406 C   0  0  0  0  0  0  0  0  0  0  0  0
   -3.5299   -0.0441   -4.8598 C   0  0  0  0  0  0  0  0  0  0  0  0
   -4.0616   -1.2533   -5.2674 C   0  0  0  0  0  0  0  0  0  0  0  0
   -4.9555   -1.9245   -4.4542 C   0  0  0  0  0  0  0  0  0  0  0  0
   -7.4240   -2.5501    1.4312 C   0  0  0  0  0  0  0  0  0  0  0  0
   -8.3951   -3.0349    2.2854 C   0  0  0  0  0  0  0  0  0  0  0  0
   -9.5733   -2.1713    2.6557 C   0  0  1  0  0  0  0  0  0  0  0  0
   -9.8762   -6.3740    4.8164 H   0  0  0  0  0  0  0  0  0  0  0  0
   -9.0161   -6.8198    3.3231 H   0  0  0  0  0  0  0  0  0  0  0  0
   -8.1112   -6.1693    4.7109 H   0  0  0  0  0  0  0  0  0  0  0  0
   -7.1048   -6.1046    2.8707 H   0  0  0  0  0  0  0  0  0  0  0  0
   -5.3836   -5.2362    1.3398 H   0  0  0  0  0  0  0  0  0  0  0  0
   -5.0823   -4.3345   -3.1642 H   0  0  0  0  0  0  0  0  0  0  0  0
   -4.4217   -4.8451   -1.5922 H   0  0  0  0  0  0  0  0  0  0  0  0
   -5.6391   -6.9416   -2.7694 H   0  0  0  0  0  0  0  0  0  0  0  0
   -8.1033   -7.5281   -4.2189 H   0  0  0  0  0  0  0  0  0  0  0  0
   -9.4433   -7.9429   -3.1231 H   0  0  0  0  0  0  0  0  0  0  0  0
   -8.9181   -6.2500   -3.2857 H   0  0  0  0  0  0  0  0  0  0  0  0
   -7.9866   -9.6027   -2.0483 H   0  0  0  0  0  0  0  0  0  0  0  0
   -6.5613   -9.1587   -3.0177 H   0  0  0  0  0  0  0  0  0  0  0  0
   -5.3551   -8.5146   -0.9491 H   0  0  0  0  0  0  0  0  0  0  0  0
   -6.7804   -8.9586    0.0202 H   0  0  0  0  0  0  0  0  0  0  0  0
   -7.4271  -11.2858    0.2850 H   0  0  0  0  0  0  0  0  0  0  0  0
   -6.6741  -13.6300    0.3184 H   0  0  0  0  0  0  0  0  0  0  0  0
   -4.5852  -14.2685   -0.8182 H   0  0  0  0  0  0  0  0  0  0  0  0
   -3.2496  -12.5630   -1.9889 H   0  0  0  0  0  0  0  0  0  0  0  0
   -4.0050  -10.2196   -2.0263 H   0  0  0  0  0  0  0  0  0  0  0  0
   -7.0448   -2.6168   -2.9711 H   0  0  0  0  0  0  0  0  0  0  0  0
   -6.8010   -1.3985   -1.6965 H   0  0  0  0  0  0  0  0  0  0  0  0
   -5.0774    0.2481   -1.8768 H   0  0  0  0  0  0  0  0  0  0  0  0
   -3.4796    1.4403   -3.3221 H   0  0  0  0  0  0  0  0  0  0  0  0
   -2.8296    0.4791   -5.4939 H   0  0  0  0  0  0  0  0  0  0  0  0
   -3.7766   -1.6748   -6.2200 H   0  0  0  0  0  0  0  0  0  0  0  0
   -5.3709   -2.8692   -4.7726 H   0  0  0  0  0  0  0  0  0  0  0  0
   -7.5111   -1.5528    1.0258 H   0  0  0  0  0  0  0  0  0  0  0  0
  -10.3804   -2.3320    1.9409 H   0  0  0  0  0  0  0  0  0  0  0  0
   -9.9163   -2.4343    3.6563 H   0  0  0  0  0  0  0  0  0  0  0  0
   -9.2753   -1.1230    2.6375 H   0  0  0  0  0  0  0  0  0  0  0  0
  1  2  1  0
  1 36  1  1
  1 37  1  0
  1 38  1  0
  2  3  1  0
  3 34  2  0
  3  4  1  0
  4  5  2  0
  4 39  1  0
  5  6  1  0
  5 40  1  0
  6  7  1  0
  6 33  2  0
  7  8  2  0
  7  9  2  0
  7 10  1  6
 10 11  1  0
 10 26  1  0
 11 12  1  0
 11 41  1  6
 11 42  1  0
 12 13  2  0
 12 14  1  0
 14 15  1  0
 14 43  1  0
 15 16  1  1
 15 17  1  0
 15 18  1  0
 17 44  1  6
 17 45  1  0
 17 46  1  0
 18 19  1  0
 18 47  1  1
 18 48  1  0
 19 20  1  0
 19 49  1  6
 19 50  1  0
 20 25  2  0
 20 21  1  0
 21 22  2  0
 21 51  1  0
 22 23  1  0
 22 52  1  0
 23 24  2  0
 23 53  1  0
 24 25  1  0
 24 54  1  0
 25 55  1  0
 26 27  1  0
 26 56  1  6
 26 57  1  0
 27 32  2  0
 27 28  1  0
 28 29  2  0
 28 58  1  0
 29 30  1  0
 29 59  1  0
 30 31  2  0
 30 60  1  0
 31 32  1  0
 31 61  1  0
 32 62  1  0
 33 34  1  0
 33 63  1  0
 34 35  1  0
 35 64  1  6
 35 65  1  0
 35 66  1  0
M  END
$$$$
