ZINC000408613786
     RDKit          3D

 69 71  0  0  1  0  0  0  0  0999 V2000
   -2.2860  -12.3803    5.7559 C   0  0  1  0  0  0  0  0  0  0  0  0
   -1.4846  -11.1342    5.3740 C   0  0  1  0  0  0  0  0  0  0  0  0
   -1.6280  -10.8862    3.9740 O   0  0  0  0  0  0  0  0  0  0  0  0
   -0.9741   -9.8075    3.4684 C   0  0  0  0  0  0  0  0  0  0  0  0
   -0.2058   -9.0075    4.3014 C   0  0  0  0  0  0  0  0  0  0  0  0
    0.4583   -7.9116    3.7848 C   0  0  0  0  0  0  0  0  0  0  0  0
    0.3572   -7.6117    2.4391 C   0  0  0  0  0  0  0  0  0  0  0  0
    1.2049   -6.2131    1.7835 S   0  0  1  0  0  0  0  0  0  0  0  0
    0.4389   -5.7632    0.6744 O   0  0  0  0  0  0  0  0  0  0  0  0
    1.5288   -5.3845    2.8916 O   0  0  0  0  0  0  0  0  0  0  0  0
    2.6437   -6.7556    1.1689 N   0  0  0  0  0  0  0  0  0  0  0  0
    3.8012   -6.9213    2.0515 C   0  0  1  0  0  0  0  0  0  0  0  0
    3.8747   -8.3516    2.5204 C   0  0  0  0  0  0  0  0  0  0  0  0
    3.0421   -9.1536    2.1536 O   0  0  0  0  0  0  0  0  0  0  0  0
    4.8656   -8.7396    3.3475 N   0  0  0  0  0  0  0  0  0  0  0  0
    4.9371  -10.1300    3.8034 C   0  0  2  0  0  0  0  0  0  0  0  0
    4.5992  -10.7917    3.0058 H   0  0  0  0  0  0  0  0  0  0  0  0
    4.0409  -10.3111    5.0302 C   0  0  1  0  0  0  0  0  0  0  0  0
    6.3820  -10.4722    4.1723 C   0  0  1  0  0  0  0  0  0  0  0  0
    7.2564  -10.4120    2.9182 C   0  0  1  0  0  0  0  0  0  0  0  0
    8.6796  -10.7490    3.2815 C   0  0  0  0  0  0  0  0  0  0  0  0
    9.5515   -9.7465    3.6631 C   0  0  0  0  0  0  0  0  0  0  0  0
   10.8569  -10.0556    3.9964 C   0  0  0  0  0  0  0  0  0  0  0  0
   11.2904  -11.3674    3.9485 C   0  0  0  0  0  0  0  0  0  0  0  0
   10.4182  -12.3701    3.5678 C   0  0  0  0  0  0  0  0  0  0  0  0
    9.1116  -12.0614    3.2387 C   0  0  0  0  0  0  0  0  0  0  0  0
    2.7590   -7.0699   -0.2573 C   0  0  1  0  0  0  0  0  0  0  0  0
    3.3279   -5.8817   -0.9891 C   0  0  0  0  0  0  0  0  0  0  0  0
    2.4810   -4.9748   -1.5984 C   0  0  0  0  0  0  0  0  0  0  0  0
    3.0029   -3.8849   -2.2696 C   0  0  0  0  0  0  0  0  0  0  0  0
    4.3716   -3.7016   -2.3313 C   0  0  0  0  0  0  0  0  0  0  0  0
    5.2185   -4.6080   -1.7213 C   0  0  0  0  0  0  0  0  0  0  0  0
    4.6965   -5.6956   -1.0464 C   0  0  0  0  0  0  0  0  0  0  0  0
   -0.4078   -8.4079    1.6065 C   0  0  0  0  0  0  0  0  0  0  0  0
   -1.0694   -9.5077    2.1170 C   0  0  0  0  0  0  0  0  0  0  0  0
   -1.9025  -10.3752    1.2090 C   0  0  1  0  0  0  0  0  0  0  0  0
   -1.9139  -13.2377    5.1951 H   0  0  0  0  0  0  0  0  0  0  0  0
   -2.1767  -12.5695    6.8238 H   0  0  0  0  0  0  0  0  0  0  0  0
   -3.3385  -12.2216    5.5210 H   0  0  0  0  0  0  0  0  0  0  0  0
   -1.8568  -10.2769    5.9348 H   0  0  0  0  0  0  0  0  0  0  0  0
   -0.4321  -11.2930    5.6090 H   0  0  0  0  0  0  0  0  0  0  0  0
   -0.1271   -9.2410    5.3529 H   0  0  0  0  0  0  0  0  0  0  0  0
    1.0567   -7.2885    4.4329 H   0  0  0  0  0  0  0  0  0  0  0  0
    4.7118   -6.6701    1.5075 H   0  0  0  0  0  0  0  0  0  0  0  0
    3.6988   -6.2613    2.9129 H   0  0  0  0  0  0  0  0  0  0  0  0
    5.5315   -8.0981    3.6409 H   0  0  0  0  0  0  0  0  0  0  0  0
    4.3788   -9.6494    5.8278 H   0  0  0  0  0  0  0  0  0  0  0  0
    3.0116  -10.0673    4.7674 H   0  0  0  0  0  0  0  0  0  0  0  0
    4.0941  -11.3456    5.3694 H   0  0  0  0  0  0  0  0  0  0  0  0
    6.7493   -9.7548    4.9061 H   0  0  0  0  0  0  0  0  0  0  0  0
    6.4211  -11.4763    4.5946 H   0  0  0  0  0  0  0  0  0  0  0  0
    6.8891  -11.1294    2.1844 H   0  0  0  0  0  0  0  0  0  0  0  0
    7.2173   -9.4079    2.4959 H   0  0  0  0  0  0  0  0  0  0  0  0
    9.2128   -8.7216    3.7005 H   0  0  0  0  0  0  0  0  0  0  0  0
   11.5383   -9.2723    4.2938 H   0  0  0  0  0  0  0  0  0  0  0  0
   12.3105  -11.6088    4.2082 H   0  0  0  0  0  0  0  0  0  0  0  0
   10.7570  -13.3949    3.5301 H   0  0  0  0  0  0  0  0  0  0  0  0
    8.4302  -12.8448    2.9413 H   0  0  0  0  0  0  0  0  0  0  0  0
    3.4191   -7.9274   -0.3882 H   0  0  0  0  0  0  0  0  0  0  0  0
    1.7733   -7.3057   -0.6583 H   0  0  0  0  0  0  0  0  0  0  0  0
    1.4116   -5.1180   -1.5502 H   0  0  0  0  0  0  0  0  0  0  0  0
    2.3412   -3.1768   -2.7462 H   0  0  0  0  0  0  0  0  0  0  0  0
    4.7794   -2.8505   -2.8564 H   0  0  0  0  0  0  0  0  0  0  0  0
    6.2879   -4.4650   -1.7698 H   0  0  0  0  0  0  0  0  0  0  0  0
    5.3582   -6.4038   -0.5698 H   0  0  0  0  0  0  0  0  0  0  0  0
   -0.4850   -8.1718    0.5554 H   0  0  0  0  0  0  0  0  0  0  0  0
   -1.2814  -11.1694    0.7949 H   0  0  0  0  0  0  0  0  0  0  0  0
   -2.7224  -10.8141    1.7775 H   0  0  0  0  0  0  0  0  0  0  0  0
   -2.3063   -9.7694    0.3978 H   0  0  0  0  0  0  0  0  0  0  0  0
  1  2  1  0
  1 37  1  6
  1 38  1  0
  1 39  1  0
  2  3  1  0
  2 40  1  1
  2 41  1  0
  3  4  1  0
  4 35  2  0
  4  5  1  0
  5  6  2  0
  5 42  1  0
  6  7  1  0
  6 43  1  0
  7  8  1  0
  7 34  2  0
  8  9  2  0
  8 10  2  0
  8 11  1  6
 11 12  1  0
 11 27  1  0
 12 13  1  0
 12 44  1  6
 12 45  1  0
 13 14  2  0
 13 15  1  0
 15 16  1  0
 15 46  1  0
 16 17  1  6
 16 18  1  0
 16 19  1  0
 18 47  1  1
 18 48  1  0
 18 49  1  0
 19 20  1  0
 19 50  1  1
 19 51  1  0
 20 21  1  0
 20 52  1  6
 20 53  1  0
 21 26  2  0
 21 22  1  0
 22 23  2  0
 22 54  1  0
 23 24  1  0
 23 55  1  0
 24 25  2  0
 24 56  1  0
 25 26  1  0
 25 57  1  0
 26 58  1  0
 27 28  1  0
 27 59  1  1
 27 60  1  0
 28 33  2  0
 28 29  1  0
 29 30  2  0
 29 61  1  0
 30 31  1  0
 30 62  1  0
 31 32  2  0
 31 63  1  0
 32 33  1  0
 32 64  1  0
 33 65  1  0
 34 35  1  0
 34 66  1  0
 35 36  1  0
 36 67  1  6
 36 68  1  0
 36 69  1  0
M  END
$$$$
