ZINC000009052241
     RDKit          3D

 49 51  0  0  1  0  0  0  0  0999 V2000
    0.7999    3.8017   -1.6795 C   0  0  1  0  0  0  0  0  0  0  0  0
    0.6187    2.4277   -1.3312 O   0  0  0  0  0  0  0  0  0  0  0  0
    1.1272    1.5015   -2.1874 C   0  0  0  0  0  0  0  0  0  0  0  0
    1.7907    1.9065   -3.3340 C   0  0  0  0  0  0  0  0  0  0  0  0
    2.3076    0.9634   -4.2033 C   0  0  0  0  0  0  0  0  0  0  0  0
    2.1634   -0.3840   -3.9314 C   0  0  0  0  0  0  0  0  0  0  0  0
    2.7282   -1.4075   -4.8825 C   0  0  1  0  0  0  0  0  0  0  0  0
    4.1658   -1.7407   -4.4783 C   0  0  1  0  0  0  0  0  0  0  0  0
    4.7148   -2.7357   -5.4029 N   0  0  0  0  0  0  0  0  0  0  0  0
    4.6195   -4.0585   -5.2267 C   0  0  0  0  0  0  0  0  0  0  0  0
    4.0654   -4.5754   -4.2765 O   0  0  0  0  0  0  0  0  0  0  0  0
    5.2055   -4.7526   -6.2190 N   0  0  0  0  0  0  0  0  0  0  0  0
    5.7520   -3.7608   -7.1612 C   0  0  1  0  0  0  0  0  0  0  0  0
    7.2078   -3.8918   -7.2605 N   0  0  0  0  0  0  0  0  0  0  0  0
    7.9237   -2.9658   -7.9287 C   0  0  0  0  0  0  0  0  0  0  0  0
    7.3744   -1.9815   -8.3763 O   0  0  0  0  0  0  0  0  0  0  0  0
    9.4067   -3.1535   -8.1198 C   0  0  1  0  0  0  0  0  0  0  0  0
    9.9070   -3.4272   -9.5395 C   0  0  1  0  0  0  0  0  0  0  0  0
   10.1632   -2.0672   -8.8870 C   0  0  1  0  0  0  0  0  0  0  0  0
    5.1043   -3.9132   -8.5389 C   0  0  1  0  0  0  0  0  0  0  0  0
    3.7126   -3.8531   -8.4091 F   0  0  0  0  0  0  0  0  0  0  0  0
    5.5396   -2.8800   -9.3757 F   0  0  0  0  0  0  0  0  0  0  0  0
    5.4683   -5.1457   -9.0917 F   0  0  0  0  0  0  0  0  0  0  0  0
    5.3732   -2.4316   -6.5387 C   0  0  0  0  0  0  0  0  0  0  0  0
    5.6169   -1.3251   -6.9701 O   0  0  0  0  0  0  0  0  0  0  0  0
    1.5025   -0.7950   -2.7884 C   0  0  0  0  0  0  0  0  0  0  0  0
    0.9870    0.1446   -1.9107 C   0  0  0  0  0  0  0  0  0  0  0  0
    0.3368   -0.2579   -0.7861 O   0  0  0  0  0  0  0  0  0  0  0  0
    0.2216   -1.6661   -0.5722 C   0  0  1  0  0  0  0  0  0  0  0  0
    1.8653    4.0213   -1.7496 H   0  0  0  0  0  0  0  0  0  0  0  0
    0.3244    3.9988   -2.6403 H   0  0  0  0  0  0  0  0  0  0  0  0
    0.3484    4.4331   -0.9143 H   0  0  0  0  0  0  0  0  0  0  0  0
    1.9041    2.9588   -3.5491 H   0  0  0  0  0  0  0  0  0  0  0  0
    2.8247    1.2805   -5.0969 H   0  0  0  0  0  0  0  0  0  0  0  0
    2.1213   -2.3121   -4.8450 H   0  0  0  0  0  0  0  0  0  0  0  0
    2.7195   -1.0058   -5.8957 H   0  0  0  0  0  0  0  0  0  0  0  0
    4.7727   -0.8361   -4.5157 H   0  0  0  0  0  0  0  0  0  0  0  0
    4.1745   -2.1424   -3.4651 H   0  0  0  0  0  0  0  0  0  0  0  0
    5.2584   -5.7179   -6.2983 H   0  0  0  0  0  0  0  0  0  0  0  0
    7.6564   -4.6449   -6.8453 H   0  0  0  0  0  0  0  0  0  0  0  0
    9.9279   -3.6453   -7.2986 H   0  0  0  0  0  0  0  0  0  0  0  0
   10.7576   -4.0994   -9.6526 H   0  0  0  0  0  0  0  0  0  0  0  0
    9.1635   -3.4715  -10.3354 H   0  0  0  0  0  0  0  0  0  0  0  0
    9.5882   -1.2168   -9.2536 H   0  0  0  0  0  0  0  0  0  0  0  0
   11.1823   -1.8447   -8.5708 H   0  0  0  0  0  0  0  0  0  0  0  0
    1.3913   -1.8485   -2.5782 H   0  0  0  0  0  0  0  0  0  0  0  0
   -0.3169   -1.8496    0.3575 H   0  0  0  0  0  0  0  0  0  0  0  0
   -0.3227   -2.1164   -1.4023 H   0  0  0  0  0  0  0  0  0  0  0  0
    1.2167   -2.1066   -0.5087 H   0  0  0  0  0  0  0  0  0  0  0  0
  1  2  1  0
  1 30  1  6
  1 31  1  0
  1 32  1  0
  2  3  1  0
  3 27  2  0
  3  4  1  0
  4  5  2  0
  4 33  1  0
  5  6  1  0
  5 34  1  0
  6  7  1  0
  6 26  2  0
  7  8  1  0
  7 35  1  6
  7 36  1  0
  8  9  1  0
  8 37  1  1
  8 38  1  0
  9 24  1  0
  9 10  1  0
 10 11  2  0
 10 12  1  0
 12 13  1  0
 12 39  1  0
 13 14  1  6
 13 20  1  0
 13 24  1  0
 14 15  1  0
 14 40  1  0
 15 16  2  0
 15 17  1  0
 17 19  1  0
 17 18  1  0
 17 41  1  1
 18 19  1  0
 18 42  1  1
 18 43  1  0
 19 44  1  6
 19 45  1  0
 20 21  1  1
 20 22  1  0
 20 23  1  0
 24 25  2  0
 26 27  1  0
 26 46  1  0
 27 28  1  0
 28 29  1  0
 29 47  1  1
 29 48  1  0
 29 49  1  0
M  END
$$$$
