ZINC000585146898
     RDKit          3D

 48 49  0  0  1  0  0  0  0  0999 V2000
   -0.0187    1.5258    0.0104 C   0  0  1  0  0  0  0  0  0  0  0  0
    0.0021   -0.0041    0.0020 C   0  0  1  0  0  0  0  0  0  0  0  0
    0.7421   -0.5109    1.2415 C   0  0  1  0  0  0  0  0  0  0  0  0
   -1.4333   -0.5336    0.0129 C   0  0  1  0  0  0  0  0  0  0  0  0
   -1.4124   -2.3405   -0.1461 S   0  0  1  0  0  0  0  0  0  0  0  0
   -0.8980   -2.6764   -1.4274 O   0  0  0  0  0  0  0  0  0  0  0  0
   -0.8007   -2.8899    1.0129 O   0  0  0  0  0  0  0  0  0  0  0  0
   -3.1814   -2.7404   -0.1106 C   0  0  1  0  0  0  0  0  0  0  0  0
   -3.6127   -2.3989    0.8304 H   0  0  0  0  0  0  0  0  0  0  0  0
   -3.8859   -2.0446   -1.2776 C   0  0  1  0  0  0  0  0  0  0  0  0
   -5.3838   -2.3547   -1.2294 C   0  0  1  0  0  0  0  0  0  0  0  0
   -5.5931   -3.8657   -1.3698 C   0  0  1  0  0  0  0  0  0  0  0  0
   -4.8017   -4.5506   -0.3387 N   0  0  0  0  0  0  0  0  0  0  0  0
   -5.5143   -5.6347    0.6904 S   0  0  1  0  0  0  0  0  0  0  0  0
   -4.6936   -5.6871    1.8493 O   0  0  0  0  0  0  0  0  0  0  0  0
   -6.8952   -5.3019    0.7304 O   0  0  0  0  0  0  0  0  0  0  0  0
   -5.4068   -7.2217   -0.0676 C   0  0  0  0  0  0  0  0  0  0  0  0
   -6.4164   -7.6574   -0.9052 C   0  0  0  0  0  0  0  0  0  0  0  0
   -6.3321   -8.9025   -1.4999 C   0  0  0  0  0  0  0  0  0  0  0  0
   -5.2379   -9.7116   -1.2573 C   0  0  0  0  0  0  0  0  0  0  0  0
   -5.1461  -11.0691   -1.9052 C   0  0  1  0  0  0  0  0  0  0  0  0
   -4.4936  -10.9546   -3.1374 F   0  0  0  0  0  0  0  0  0  0  0  0
   -4.4259  -11.9345   -1.0748 F   0  0  0  0  0  0  0  0  0  0  0  0
   -6.4337  -11.5785   -2.1049 F   0  0  0  0  0  0  0  0  0  0  0  0
   -4.2276   -9.2754   -0.4207 C   0  0  0  0  0  0  0  0  0  0  0  0
   -4.3101   -8.0288    0.1710 C   0  0  0  0  0  0  0  0  0  0  0  0
   -3.3658   -4.2558   -0.2375 C   0  0  1  0  0  0  0  0  0  0  0  0
    1.0039    1.9031    0.0027 H   0  0  0  0  0  0  0  0  0  0  0  0
   -0.5459    1.8868   -0.8726 H   0  0  0  0  0  0  0  0  0  0  0  0
   -0.5289    1.8773    0.9072 H   0  0  0  0  0  0  0  0  0  0  0  0
    0.5123   -0.3556   -0.8948 H   0  0  0  0  0  0  0  0  0  0  0  0
    0.2319   -0.1594    2.1383 H   0  0  0  0  0  0  0  0  0  0  0  0
    0.7568   -1.6008    1.2356 H   0  0  0  0  0  0  0  0  0  0  0  0
    1.7647   -0.1336    1.2338 H   0  0  0  0  0  0  0  0  0  0  0  0
   -1.9156   -0.2570    0.9504 H   0  0  0  0  0  0  0  0  0  0  0  0
   -1.9862   -0.1019   -0.8214 H   0  0  0  0  0  0  0  0  0  0  0  0
   -3.7354   -0.9677   -1.2026 H   0  0  0  0  0  0  0  0  0  0  0  0
   -3.4706   -2.4044   -2.2189 H   0  0  0  0  0  0  0  0  0  0  0  0
   -5.7947   -2.0174   -0.2779 H   0  0  0  0  0  0  0  0  0  0  0  0
   -5.8883   -1.8400   -2.0471 H   0  0  0  0  0  0  0  0  0  0  0  0
   -6.6488   -4.1022   -1.2373 H   0  0  0  0  0  0  0  0  0  0  0  0
   -5.2651   -4.1898   -2.3575 H   0  0  0  0  0  0  0  0  0  0  0  0
   -7.2713   -7.0253   -1.0948 H   0  0  0  0  0  0  0  0  0  0  0  0
   -7.1212   -9.2432   -2.1538 H   0  0  0  0  0  0  0  0  0  0  0  0
   -3.3725   -9.9074   -0.2314 H   0  0  0  0  0  0  0  0  0  0  0  0
   -3.5208   -7.6879    0.8246 H   0  0  0  0  0  0  0  0  0  0  0  0
   -2.8557   -4.6115   -1.1327 H   0  0  0  0  0  0  0  0  0  0  0  0
   -2.9524   -4.7499    0.6417 H   0  0  0  0  0  0  0  0  0  0  0  0
  1  2  1  0
  1 28  1  6
  1 29  1  0
  1 30  1  0
  2  3  1  0
  2  4  1  0
  2 31  1  6
  3 32  1  1
  3 33  1  0
  3 34  1  0
  4  5  1  0
  4 35  1  1
  4 36  1  0
  5  6  2  0
  5  7  2  0
  5  8  1  6
  8  9  1  1
  8 27  1  0
  8 10  1  0
 10 11  1  0
 10 37  1  1
 10 38  1  0
 11 12  1  0
 11 39  1  1
 11 40  1  0
 12 13  1  0
 12 41  1  1
 12 42  1  0
 14 13  1  6
 13 27  1  0
 14 15  2  0
 14 16  2  0
 14 17  1  0
 17 26  2  0
 17 18  1  0
 18 19  2  0
 18 43  1  0
 19 20  1  0
 19 44  1  0
 20 21  1  0
 20 25  2  0
 21 22  1  6
 21 23  1  0
 21 24  1  0
 25 26  1  0
 25 45  1  0
 26 46  1  0
 27 47  1  6
 27 48  1  0
M  END
$$$$
