ZINC000016652580
     RDKit          3D

 45 45  0  0  0  0  0  0  0  0999 V2000
   -0.0187    1.5258    0.0104 C   0  0  1  0  0  0  0  0  0  0  0  0
    0.0021   -0.0041    0.0020 C   0  0  1  0  0  0  0  0  0  0  0  0
   -1.3723   -0.5112    0.0124 N   0  0  0  0  0  0  0  0  0  0  0  0
   -1.6006   -1.8394    0.0075 C   0  0  0  0  0  0  0  0  0  0  0  0
   -0.6682   -2.6149   -0.0056 O   0  0  0  0  0  0  0  0  0  0  0  0
   -3.0144   -2.3611    0.0182 C   0  0  1  0  0  0  0  0  0  0  0  0
   -2.9937   -3.8909    0.0097 C   0  0  1  0  0  0  0  0  0  0  0  0
   -4.4075   -4.4125    0.0204 C   0  0  0  0  0  0  0  0  0  0  0  0
   -5.0464   -4.6528    1.2225 C   0  0  0  0  0  0  0  0  0  0  0  0
   -6.3433   -5.1313    1.2323 C   0  0  0  0  0  0  0  0  0  0  0  0
   -7.0013   -5.3690    0.0401 C   0  0  0  0  0  0  0  0  0  0  0  0
   -8.6542   -5.9795    0.0526 S   0  0  1  0  0  0  0  0  0  0  0  0
   -8.8521   -6.6274   -1.1965 O   0  0  0  0  0  0  0  0  0  0  0  0
   -8.8319   -6.6310    1.3029 O   0  0  0  0  0  0  0  0  0  0  0  0
   -9.6620   -4.6655    0.0627 N   0  0  0  0  0  0  0  0  0  0  0  0
  -10.1180   -4.0824   -1.2016 C   0  0  1  0  0  0  0  0  0  0  0  0
  -11.4827   -4.6677   -1.5702 C   0  0  1  0  0  0  0  0  0  0  0  0
  -10.0975   -4.0861    1.3358 C   0  0  1  0  0  0  0  0  0  0  0  0
   -9.1756   -2.9233    1.7088 C   0  0  1  0  0  0  0  0  0  0  0  0
   -6.3629   -5.1274   -1.1619 C   0  0  0  0  0  0  0  0  0  0  0  0
   -5.0673   -4.6453   -1.1717 C   0  0  0  0  0  0  0  0  0  0  0  0
    1.0039    1.9031    0.0027 H   0  0  0  0  0  0  0  0  0  0  0  0
   -0.5459    1.8868   -0.8726 H   0  0  0  0  0  0  0  0  0  0  0  0
   -0.5289    1.8773    0.9072 H   0  0  0  0  0  0  0  0  0  0  0  0
    0.5123   -0.3556   -0.8948 H   0  0  0  0  0  0  0  0  0  0  0  0
    0.5293   -0.3651    0.8851 H   0  0  0  0  0  0  0  0  0  0  0  0
   -2.1181    0.1091    0.0229 H   0  0  0  0  0  0  0  0  0  0  0  0
   -3.5246   -2.0095    0.9150 H   0  0  0  0  0  0  0  0  0  0  0  0
   -3.5416   -2.0000   -0.8649 H   0  0  0  0  0  0  0  0  0  0  0  0
   -2.4835   -4.2424   -0.8870 H   0  0  0  0  0  0  0  0  0  0  0  0
   -2.4665   -4.2520    0.8928 H   0  0  0  0  0  0  0  0  0  0  0  0
   -4.5323   -4.4671    2.1539 H   0  0  0  0  0  0  0  0  0  0  0  0
   -6.8423   -5.3197    2.1714 H   0  0  0  0  0  0  0  0  0  0  0  0
  -10.2037   -3.0012   -1.0931 H   0  0  0  0  0  0  0  0  0  0  0  0
   -9.3994   -4.3128   -1.9881 H   0  0  0  0  0  0  0  0  0  0  0  0
  -11.3971   -5.7489   -1.6787 H   0  0  0  0  0  0  0  0  0  0  0  0
  -12.2013   -4.4373   -0.7837 H   0  0  0  0  0  0  0  0  0  0  0  0
  -11.8221   -4.2339   -2.5108 H   0  0  0  0  0  0  0  0  0  0  0  0
  -11.1202   -3.7220    1.2383 H   0  0  0  0  0  0  0  0  0  0  0  0
  -10.0554   -4.8474    2.1147 H   0  0  0  0  0  0  0  0  0  0  0  0
   -9.4997   -2.4922    2.6561 H   0  0  0  0  0  0  0  0  0  0  0  0
   -8.1528   -3.2874    1.8063 H   0  0  0  0  0  0  0  0  0  0  0  0
   -9.2177   -2.1620    0.9299 H   0  0  0  0  0  0  0  0  0  0  0  0
   -6.8771   -5.3128   -2.0934 H   0  0  0  0  0  0  0  0  0  0  0  0
   -4.5685   -4.4565   -2.1108 H   0  0  0  0  0  0  0  0  0  0  0  0
  1  2  1  0
  1 22  1  6
  1 23  1  0
  1 24  1  0
  2  3  1  0
  2 25  1  6
  2 26  1  0
  3  4  1  0
  3 27  1  0
  4  5  2  0
  4  6  1  0
  6  7  1  0
  6 28  1  1
  6 29  1  0
  7  8  1  0
  7 30  1  6
  7 31  1  0
  8 21  2  0
  8  9  1  0
  9 10  2  0
  9 32  1  0
 10 11  1  0
 10 33  1  0
 11 12  1  0
 11 20  2  0
 12 13  2  0
 12 14  2  0
 12 15  1  1
 15 16  1  0
 15 18  1  0
 16 17  1  0
 16 34  1  1
 16 35  1  0
 17 36  1  6
 17 37  1  0
 17 38  1  0
 18 19  1  0
 18 39  1  6
 18 40  1  0
 19 41  1  1
 19 42  1  0
 19 43  1  0
 20 21  1  0
 20 44  1  0
 21 45  1  0
M  END
$$$$
