ZINC000012922356
     RDKit          3D

 64 66  0  0  1  0  0  0  0  0999 V2000
    1.2545   -4.2683    0.2554 C   0  0  1  0  0  0  0  0  0  0  0  0
    1.6354   -2.8513    0.6889 C   0  0  1  0  0  0  0  0  0  0  0  0
    0.4214   -2.1528    1.2451 C   0  0  0  0  0  0  0  0  0  0  0  0
   -0.4054   -1.4306    0.4046 C   0  0  0  0  0  0  0  0  0  0  0  0
   -1.5202   -0.7877    0.9112 C   0  0  0  0  0  0  0  0  0  0  0  0
   -1.8111   -0.8657    2.2588 C   0  0  0  0  0  0  0  0  0  0  0  0
   -0.9828   -1.5907    3.1058 C   0  0  0  0  0  0  0  0  0  0  0  0
   -1.2750   -1.6720    4.4718 N   0  0  0  0  0  0  0  0  0  0  0  0
   -0.5316   -2.4986    5.4299 C   0  0  1  0  0  0  0  0  0  0  0  0
   -0.9057   -1.9500    6.8247 C   0  0  2  0  0  0  0  0  0  0  0  0
   -0.1907   -1.1950    7.1516 H   0  0  0  0  0  0  0  0  0  0  0  0
   -1.0072   -3.0651    7.8333 C   0  0  0  0  0  0  0  0  0  0  0  0
   -0.8028   -4.2112    7.4930 O   0  0  0  0  0  0  0  0  0  0  0  0
   -1.3252   -2.7889    9.1136 N   0  0  0  0  0  0  0  0  0  0  0  0
   -1.3032   -3.8068   10.0763 C   0  0  0  0  0  0  0  0  0  0  0  0
   -0.3694   -4.8283    9.9868 C   0  0  0  0  0  0  0  0  0  0  0  0
   -0.3497   -5.8315   10.9376 C   0  0  0  0  0  0  0  0  0  0  0  0
    0.8374   -7.1285   10.8222 S   0  0  1  0  0  0  0  0  0  0  0  0
    0.2959   -8.2326   11.5344 O   0  0  0  0  0  0  0  0  0  0  0  0
    1.2237   -7.1986    9.4566 O   0  0  0  0  0  0  0  0  0  0  0  0
    2.1784   -6.6419   11.6632 N   0  0  0  0  0  0  0  0  0  0  0  0
    2.3006   -6.9516   13.0899 C   0  0  1  0  0  0  0  0  0  0  0  0
    3.1076   -8.2396   13.2649 C   0  0  1  0  0  0  0  0  0  0  0  0
    3.2425   -5.9018   10.9805 C   0  0  1  0  0  0  0  0  0  0  0  0
    3.0249   -4.3999   11.1751 C   0  0  1  0  0  0  0  0  0  0  0  0
   -1.2587   -5.8195   11.9791 C   0  0  0  0  0  0  0  0  0  0  0  0
   -2.1929   -4.8044   12.0746 C   0  0  0  0  0  0  0  0  0  0  0  0
   -2.2156   -3.7924   11.1292 C   0  0  0  0  0  0  0  0  0  0  0  0
   -3.1334   -2.7934   11.2220 O   0  0  0  0  0  0  0  0  0  0  0  0
   -4.0450   -2.8500   12.3210 C   0  0  1  0  0  0  0  0  0  0  0  0
   -2.2914   -1.3195    6.5543 C   0  0  1  0  0  0  0  0  0  0  0  0
   -2.2691   -0.9986    5.0761 C   0  0  0  0  0  0  0  0  0  0  0  0
   -3.0406   -0.2486    4.5163 O   0  0  0  0  0  0  0  0  0  0  0  0
    0.1328   -2.2393    2.5932 C   0  0  0  0  0  0  0  0  0  0  0  0
    0.4811   -4.2183   -0.5110 H   0  0  0  0  0  0  0  0  0  0  0  0
    2.1325   -4.7736   -0.1469 H   0  0  0  0  0  0  0  0  0  0  0  0
    0.8785   -4.8226    1.1153 H   0  0  0  0  0  0  0  0  0  0  0  0
    2.4088   -2.9014    1.4554 H   0  0  0  0  0  0  0  0  0  0  0  0
    2.0114   -2.2970   -0.1710 H   0  0  0  0  0  0  0  0  0  0  0  0
   -0.1800   -1.3682   -0.6498 H   0  0  0  0  0  0  0  0  0  0  0  0
   -2.1637   -0.2238    0.2521 H   0  0  0  0  0  0  0  0  0  0  0  0
   -2.6816   -0.3631    2.6539 H   0  0  0  0  0  0  0  0  0  0  0  0
   -0.8335   -3.5422    5.3416 H   0  0  0  0  0  0  0  0  0  0  0  0
    0.5407   -2.3998    5.2609 H   0  0  0  0  0  0  0  0  0  0  0  0
   -1.5692   -1.8854    9.3686 H   0  0  0  0  0  0  0  0  0  0  0  0
    0.3419   -4.8403    9.1742 H   0  0  0  0  0  0  0  0  0  0  0  0
    2.8097   -6.1321   13.5972 H   0  0  0  0  0  0  0  0  0  0  0  0
    1.3075   -7.0838   13.5194 H   0  0  0  0  0  0  0  0  0  0  0  0
    4.1006   -8.1074   12.8354 H   0  0  0  0  0  0  0  0  0  0  0  0
    3.1985   -8.4700   14.3264 H   0  0  0  0  0  0  0  0  0  0  0  0
    2.5985   -9.0591   12.7576 H   0  0  0  0  0  0  0  0  0  0  0  0
    4.2084   -6.1861   11.3981 H   0  0  0  0  0  0  0  0  0  0  0  0
    3.2234   -6.1369    9.9163 H   0  0  0  0  0  0  0  0  0  0  0  0
    3.8166   -3.8493   10.6671 H   0  0  0  0  0  0  0  0  0  0  0  0
    2.0590   -4.1157   10.7575 H   0  0  0  0  0  0  0  0  0  0  0  0
    3.0439   -4.1649   12.2393 H   0  0  0  0  0  0  0  0  0  0  0  0
   -1.2393   -6.6051   12.7199 H   0  0  0  0  0  0  0  0  0  0  0  0
   -2.9019   -4.7981   12.8893 H   0  0  0  0  0  0  0  0  0  0  0  0
   -4.6216   -3.7735   12.2676 H   0  0  0  0  0  0  0  0  0  0  0  0
   -3.4874   -2.8234   13.2573 H   0  0  0  0  0  0  0  0  0  0  0  0
   -4.7212   -1.9963   12.2765 H   0  0  0  0  0  0  0  0  0  0  0  0
   -3.0852   -2.0308    6.7822 H   0  0  0  0  0  0  0  0  0  0  0  0
   -2.4160   -0.4074    7.1380 H   0  0  0  0  0  0  0  0  0  0  0  0
    0.7789   -2.8038    3.2492 H   0  0  0  0  0  0  0  0  0  0  0  0
  1  2  1  0
  1 35  1  6
  1 36  1  0
  1 37  1  0
  2  3  1  0
  2 38  1  1
  2 39  1  0
  3 34  2  0
  3  4  1  0
  4  5  2  0
  4 40  1  0
  5  6  1  0
  5 41  1  0
  6  7  2  0
  6 42  1  0
  7  8  1  0
  7 34  1  0
  8 32  1  0
  8  9  1  0
  9 10  1  0
  9 43  1  1
  9 44  1  0
 10 11  1  1
 10 12  1  0
 10 31  1  0
 12 13  2  0
 12 14  1  0
 14 15  1  0
 14 45  1  0
 15 28  2  0
 15 16  1  0
 16 17  2  0
 16 46  1  0
 17 18  1  0
 17 26  1  0
 18 19  2  0
 18 20  2  0
 18 21  1  1
 21 22  1  0
 21 24  1  0
 22 23  1  0
 22 47  1  1
 22 48  1  0
 23 49  1  6
 23 50  1  0
 23 51  1  0
 24 25  1  0
 24 52  1  1
 24 53  1  0
 25 54  1  6
 25 55  1  0
 25 56  1  0
 26 27  2  0
 26 57  1  0
 27 28  1  0
 27 58  1  0
 28 29  1  0
 29 30  1  0
 30 59  1  6
 30 60  1  0
 30 61  1  0
 31 32  1  0
 31 62  1  6
 31 63  1  0
 32 33  2  0
 34 64  1  0
M  END
$$$$
