ZINC000011613777
     RDKit          3D

 40 41  0  0  0  0  0  0  0  0999 V2000
   -0.0162    1.3436    0.0094 N   0  0  0  0  0  0  0  0  0  0  0  0
    0.0021   -0.0041    0.0020 C   0  0  0  0  0  0  0  0  0  0  0  0
    1.0605   -0.5961   -0.0113 O   0  0  0  0  0  0  0  0  0  0  0  0
   -1.2926   -0.7753    0.0102 C   0  0  1  0  0  0  0  0  0  0  0  0
   -2.1125   -0.4083   -1.2288 C   0  0  1  0  0  0  0  0  0  0  0  0
   -3.4426   -1.1678   -1.1994 C   0  0  1  0  0  0  0  0  0  0  0  0
   -3.1641   -2.6040   -1.0637 N   0  0  0  0  0  0  0  0  0  0  0  0
   -3.8008   -3.6921   -2.1375 S   0  0  1  0  0  0  0  0  0  0  0  0
   -3.8348   -4.9446   -1.4671 O   0  0  0  0  0  0  0  0  0  0  0  0
   -4.9543   -3.0775   -2.6952 O   0  0  0  0  0  0  0  0  0  0  0  0
   -2.6427   -3.8639   -3.4543 C   0  0  0  0  0  0  0  0  0  0  0  0
   -2.7212   -3.0333   -4.5565 C   0  0  0  0  0  0  0  0  0  0  0  0
   -1.8127   -3.1681   -5.5896 C   0  0  0  0  0  0  0  0  0  0  0  0
   -1.8985   -2.2629   -6.7914 C   0  0  1  0  0  0  0  0  0  0  0  0
   -1.1230   -1.1197   -6.5705 F   0  0  0  0  0  0  0  0  0  0  0  0
   -1.4217   -2.9391   -7.9195 F   0  0  0  0  0  0  0  0  0  0  0  0
   -3.2306   -1.8897   -6.9999 F   0  0  0  0  0  0  0  0  0  0  0  0
   -0.8251   -4.1329   -5.5201 C   0  0  0  0  0  0  0  0  0  0  0  0
   -0.7464   -4.9632   -4.4177 C   0  0  0  0  0  0  0  0  0  0  0  0
    0.3299   -6.0153   -4.3422 C   0  0  1  0  0  0  0  0  0  0  0  0
    1.1201   -5.9577   -5.4952 F   0  0  0  0  0  0  0  0  0  0  0  0
    1.1290   -5.7849   -3.2172 F   0  0  0  0  0  0  0  0  0  0  0  0
   -0.2602   -7.2799   -4.2439 F   0  0  0  0  0  0  0  0  0  0  0  0
   -1.6523   -4.8256   -3.3827 C   0  0  0  0  0  0  0  0  0  0  0  0
   -2.3097   -3.0565    0.0427 C   0  0  1  0  0  0  0  0  0  0  0  0
   -0.9923   -2.2759   -0.0007 C   0  0  1  0  0  0  0  0  0  0  0  0
    0.8172    1.8399    0.0041 H   0  0  0  0  0  0  0  0  0  0  0  0
   -0.8627    1.8171    0.0160 H   0  0  0  0  0  0  0  0  0  0  0  0
   -1.8588   -0.5247    0.9073 H   0  0  0  0  0  0  0  0  0  0  0  0
   -2.3061    0.6643   -1.2325 H   0  0  0  0  0  0  0  0  0  0  0  0
   -1.5574   -0.6814   -2.1263 H   0  0  0  0  0  0  0  0  0  0  0  0
   -4.0380   -0.8293   -0.3515 H   0  0  0  0  0  0  0  0  0  0  0  0
   -3.9871   -0.9872   -2.1262 H   0  0  0  0  0  0  0  0  0  0  0  0
   -3.4925   -2.2793   -4.6107 H   0  0  0  0  0  0  0  0  0  0  0  0
   -0.1153   -4.2382   -6.3273 H   0  0  0  0  0  0  0  0  0  0  0  0
   -1.5908   -5.4743   -2.5214 H   0  0  0  0  0  0  0  0  0  0  0  0
   -2.8127   -2.8720    0.9919 H   0  0  0  0  0  0  0  0  0  0  0  0
   -2.1067   -4.1221   -0.0646 H   0  0  0  0  0  0  0  0  0  0  0  0
   -0.4478   -2.5313   -0.9097 H   0  0  0  0  0  0  0  0  0  0  0  0
   -0.3886   -2.5324    0.8698 H   0  0  0  0  0  0  0  0  0  0  0  0
  1  2  1  0
  1 27  1  0
  1 28  1  0
  2  3  2  0
  2  4  1  0
  4 26  1  0
  4  5  1  0
  4 29  1  1
  5  6  1  0
  5 30  1  6
  5 31  1  0
  6  7  1  0
  6 32  1  1
  6 33  1  0
  8  7  1  1
  7 25  1  0
  8  9  2  0
  8 10  2  0
  8 11  1  0
 11 24  2  0
 11 12  1  0
 12 13  2  0
 12 34  1  0
 13 14  1  0
 13 18  1  0
 14 15  1  1
 14 16  1  0
 14 17  1  0
 18 19  2  0
 18 35  1  0
 19 20  1  0
 19 24  1  0
 20 21  1  6
 20 22  1  0
 20 23  1  0
 24 36  1  0
 25 26  1  0
 25 37  1  1
 25 38  1  0
 26 39  1  6
 26 40  1  0
M  END
$$$$
