ZINC000170656910
     RDKit          3D

 42 43  0  0  0  0  0  0  0  0999 V2000
   -0.0910    1.5683   -0.0716 C   0  0  1  0  0  0  0  0  0  0  0  0
   -0.0522    0.0388   -0.0715 C   0  0  1  0  0  0  0  0  0  0  0  0
    0.7100   -0.4520    1.1610 C   0  0  1  0  0  0  0  0  0  0  0  0
   -1.4239   -0.4858   -0.0400 N   0  0  0  0  0  0  0  0  0  0  0  0
   -2.1657    0.0488    1.1098 C   0  0  1  0  0  0  0  0  0  0  0  0
   -3.6348   -0.3748    1.0074 C   0  0  1  0  0  0  0  0  0  0  0  0
   -3.6901   -1.8368    0.8569 N   0  0  0  0  0  0  0  0  0  0  0  0
   -4.4767   -2.5851    1.6556 C   0  0  0  0  0  0  0  0  0  0  0  0
   -5.0716   -2.0671    2.5810 O   0  0  0  0  0  0  0  0  0  0  0  0
   -4.6158   -4.0317    1.4072 C   0  0  0  0  0  0  0  0  0  0  0  0
   -4.9998   -4.4946    0.1463 C   0  0  0  0  0  0  0  0  0  0  0  0
   -5.1275   -5.8479   -0.0796 C   0  0  0  0  0  0  0  0  0  0  0  0
   -5.5419   -6.3447   -1.4406 C   0  0  1  0  0  0  0  0  0  0  0  0
   -4.4038   -6.5572   -2.2259 F   0  0  0  0  0  0  0  0  0  0  0  0
   -6.2453   -7.5463   -1.3042 F   0  0  0  0  0  0  0  0  0  0  0  0
   -6.3613   -5.3918   -2.0553 F   0  0  0  0  0  0  0  0  0  0  0  0
   -4.8765   -6.7544    0.9380 C   0  0  0  0  0  0  0  0  0  0  0  0
   -4.4963   -6.3130    2.1890 C   0  0  0  0  0  0  0  0  0  0  0  0
   -4.3575   -4.9528    2.4346 C   0  0  0  0  0  0  0  0  0  0  0  0
   -3.9745   -4.5061    3.6925 N   0  0  0  0  0  0  0  0  0  0  0  0
   -2.8647   -2.4605   -0.1885 C   0  0  1  0  0  0  0  0  0  0  0  0
   -1.4259   -1.9548   -0.0390 C   0  0  1  0  0  0  0  0  0  0  0  0
    0.9269    1.9576   -0.0951 H   0  0  0  0  0  0  0  0  0  0  0  0
   -0.6340    1.9179   -0.9497 H   0  0  0  0  0  0  0  0  0  0  0  0
   -0.5934    1.9191    0.8298 H   0  0  0  0  0  0  0  0  0  0  0  0
    0.4503   -0.3120   -0.9730 H   0  0  0  0  0  0  0  0  0  0  0  0
    0.2076   -0.1012    2.0624 H   0  0  0  0  0  0  0  0  0  0  0  0
    0.7377   -1.5416    1.1610 H   0  0  0  0  0  0  0  0  0  0  0  0
    1.7279   -0.0627    1.1375 H   0  0  0  0  0  0  0  0  0  0  0  0
   -1.7378   -0.3427    2.0326 H   0  0  0  0  0  0  0  0  0  0  0  0
   -2.1001    1.1368    1.1109 H   0  0  0  0  0  0  0  0  0  0  0  0
   -4.1650   -0.0795    1.9128 H   0  0  0  0  0  0  0  0  0  0  0  0
   -4.0932    0.1002    0.1399 H   0  0  0  0  0  0  0  0  0  0  0  0
   -5.1967   -3.7926   -0.6504 H   0  0  0  0  0  0  0  0  0  0  0  0
   -4.9795   -7.8130    0.7509 H   0  0  0  0  0  0  0  0  0  0  0  0
   -4.3029   -7.0260    2.9768 H   0  0  0  0  0  0  0  0  0  0  0  0
   -3.7334   -5.1450    4.3814 H   0  0  0  0  0  0  0  0  0  0  0  0
   -3.9481   -3.5552    3.8823 H   0  0  0  0  0  0  0  0  0  0  0  0
   -2.8857   -3.5442   -0.0737 H   0  0  0  0  0  0  0  0  0  0  0  0
   -3.2490   -2.1860   -1.1709 H   0  0  0  0  0  0  0  0  0  0  0  0
   -0.8237   -2.3199   -0.8710 H   0  0  0  0  0  0  0  0  0  0  0  0
   -1.0083   -2.3184    0.8999 H   0  0  0  0  0  0  0  0  0  0  0  0
  1  2  1  0
  1 23  1  6
  1 24  1  0
  1 25  1  0
  2  3  1  0
  2  4  1  0
  2 26  1  6
  3 27  1  1
  3 28  1  0
  3 29  1  0
  4 22  1  0
  4  5  1  0
  5  6  1  0
  5 30  1  1
  5 31  1  0
  6  7  1  0
  6 32  1  1
  6 33  1  0
  7  8  1  0
  7 21  1  0
  8  9  2  0
  8 10  1  0
 10 19  2  0
 10 11  1  0
 11 12  2  0
 11 34  1  0
 12 13  1  0
 12 17  1  0
 13 14  1  6
 13 15  1  0
 13 16  1  0
 17 18  2  0
 17 35  1  0
 18 19  1  0
 18 36  1  0
 19 20  1  0
 20 37  1  0
 20 38  1  0
 21 22  1  0
 21 39  1  1
 21 40  1  0
 22 41  1  6
 22 42  1  0
M  END
$$$$
