ZINC000004122313
     RDKit          3D

 46 47  0  0  0  0  0  0  0  0999 V2000
   -0.0187    1.5258    0.0104 C   0  0  1  0  0  0  0  0  0  0  0  0
    0.0021   -0.0041    0.0020 C   0  0  1  0  0  0  0  0  0  0  0  0
    0.7421   -0.5109    1.2415 C   0  0  1  0  0  0  0  0  0  0  0  0
   -1.3723   -0.5112    0.0124 N   0  0  0  0  0  0  0  0  0  0  0  0
   -2.0508   -0.6427   -1.1446 C   0  0  0  0  0  0  0  0  0  0  0  0
   -1.5236   -0.3413   -2.1944 O   0  0  0  0  0  0  0  0  0  0  0  0
   -3.4646   -1.1643   -1.1339 C   0  0  1  0  0  0  0  0  0  0  0  0
   -3.9776   -1.2130   -2.5053 N   0  0  0  0  0  0  0  0  0  0  0  0
   -3.7030   -2.3787   -3.3491 C   0  0  1  0  0  0  0  0  0  0  0  0
   -4.7315   -3.4469   -3.0803 C   0  0  0  0  0  0  0  0  0  0  0  0
   -4.5071   -4.3901   -2.0949 C   0  0  0  0  0  0  0  0  0  0  0  0
   -5.4505   -5.3699   -1.8483 C   0  0  0  0  0  0  0  0  0  0  0  0
   -6.6185   -5.4063   -2.5867 C   0  0  0  0  0  0  0  0  0  0  0  0
   -6.8434   -4.4625   -3.5715 C   0  0  0  0  0  0  0  0  0  0  0  0
   -5.9018   -3.4801   -3.8152 C   0  0  0  0  0  0  0  0  0  0  0  0
   -4.8677    0.0496   -3.1018 S   0  0  1  0  0  0  0  0  0  0  0  0
   -5.6571   -0.4796   -4.1582 O   0  0  0  0  0  0  0  0  0  0  0  0
   -5.4223    0.7166   -1.9762 O   0  0  0  0  0  0  0  0  0  0  0  0
   -3.7377    1.1801   -3.8431 C   0  0  0  0  0  0  0  0  0  0  0  0
   -3.1777    2.1931   -3.0874 C   0  0  0  0  0  0  0  0  0  0  0  0
   -2.2912    3.0801   -3.6691 C   0  0  0  0  0  0  0  0  0  0  0  0
   -1.9643    2.9537   -5.0063 C   0  0  0  0  0  0  0  0  0  0  0  0
   -2.5237    1.9402   -5.7617 C   0  0  0  0  0  0  0  0  0  0  0  0
   -3.4069    1.0506   -5.1791 C   0  0  0  0  0  0  0  0  0  0  0  0
    1.0039    1.9031    0.0027 H   0  0  0  0  0  0  0  0  0  0  0  0
   -0.5459    1.8868   -0.8726 H   0  0  0  0  0  0  0  0  0  0  0  0
   -0.5289    1.8773    0.9072 H   0  0  0  0  0  0  0  0  0  0  0  0
    0.5123   -0.3556   -0.8948 H   0  0  0  0  0  0  0  0  0  0  0  0
    0.2319   -0.1594    2.1383 H   0  0  0  0  0  0  0  0  0  0  0  0
    0.7568   -1.6008    1.2356 H   0  0  0  0  0  0  0  0  0  0  0  0
    1.7647   -0.1336    1.2338 H   0  0  0  0  0  0  0  0  0  0  0  0
   -1.7940   -0.7522    0.8520 H   0  0  0  0  0  0  0  0  0  0  0  0
   -3.4790   -2.1662   -0.7048 H   0  0  0  0  0  0  0  0  0  0  0  0
   -4.0912   -0.5035   -0.5349 H   0  0  0  0  0  0  0  0  0  0  0  0
   -3.7483   -2.0866   -4.3983 H   0  0  0  0  0  0  0  0  0  0  0  0
   -2.7096   -2.7656   -3.1222 H   0  0  0  0  0  0  0  0  0  0  0  0
   -3.5945   -4.3617   -1.5180 H   0  0  0  0  0  0  0  0  0  0  0  0
   -5.2749   -6.1072   -1.0789 H   0  0  0  0  0  0  0  0  0  0  0  0
   -7.3553   -6.1722   -2.3945 H   0  0  0  0  0  0  0  0  0  0  0  0
   -7.7558   -4.4912   -4.1486 H   0  0  0  0  0  0  0  0  0  0  0  0
   -6.0775   -2.7428   -4.5845 H   0  0  0  0  0  0  0  0  0  0  0  0
   -3.4330    2.2918   -2.0427 H   0  0  0  0  0  0  0  0  0  0  0  0
   -1.8541    3.8719   -3.0788 H   0  0  0  0  0  0  0  0  0  0  0  0
   -1.2723    3.6471   -5.4609 H   0  0  0  0  0  0  0  0  0  0  0  0
   -2.2686    1.8417   -6.8066 H   0  0  0  0  0  0  0  0  0  0  0  0
   -3.8440    0.2588   -5.7693 H   0  0  0  0  0  0  0  0  0  0  0  0
  1  2  1  0
  1 25  1  6
  1 26  1  0
  1 27  1  0
  2  3  1  0
  2  4  1  0
  2 28  1  6
  3 29  1  1
  3 30  1  0
  3 31  1  0
  4  5  1  0
  4 32  1  0
  5  6  2  0
  5  7  1  0
  7  8  1  0
  7 33  1  1
  7 34  1  0
  8  9  1  0
 16  8  1  1
  9 10  1  0
  9 35  1  6
  9 36  1  0
 10 15  2  0
 10 11  1  0
 11 12  2  0
 11 37  1  0
 12 13  1  0
 12 38  1  0
 13 14  2  0
 13 39  1  0
 14 15  1  0
 14 40  1  0
 15 41  1  0
 16 17  2  0
 16 18  2  0
 16 19  1  0
 19 24  2  0
 19 20  1  0
 20 21  2  0
 20 42  1  0
 21 22  1  0
 21 43  1  0
 22 23  2  0
 22 44  1  0
 23 24  1  0
 23 45  1  0
 24 46  1  0
M  END
$$$$
