ZINC000024686437
     RDKit          3D

 40 41  0  0  1  0  0  0  0  0999 V2000
   -0.6446    1.3744    1.3306 C   0  0  1  0  0  0  0  0  0  0  0  0
   -0.6389   -0.0885    1.2521 N   0  0  0  0  0  0  0  0  0  0  0  0
   -1.1323   -0.7066    0.1609 C   0  0  0  0  0  0  0  0  0  0  0  0
   -1.5811   -0.0519   -0.7561 O   0  0  0  0  0  0  0  0  0  0  0  0
   -1.1265   -2.2115    0.0801 C   0  0  2  0  0  0  0  0  0  0  0  0
   -0.5619   -2.6202    0.9181 H   0  0  0  0  0  0  0  0  0  0  0  0
   -0.4816   -2.6525   -1.2376 C   0  0  1  0  0  0  0  0  0  0  0  0
   -0.6036   -4.1717   -1.3772 C   0  0  1  0  0  0  0  0  0  0  0  0
   -2.0821   -4.5657   -1.4074 C   0  0  1  0  0  0  0  0  0  0  0  0
   -2.7452   -4.1464   -0.0917 C   0  0  1  0  0  0  0  0  0  0  0  0
   -2.5070   -2.7125    0.1253 N   0  0  0  0  0  0  0  0  0  0  0  0
   -3.7708   -1.6807    0.4088 S   0  0  1  0  0  0  0  0  0  0  0  0
   -4.7524   -2.4317    1.1100 O   0  0  0  0  0  0  0  0  0  0  0  0
   -3.2030   -0.4802    0.9144 O   0  0  0  0  0  0  0  0  0  0  0  0
   -4.4759   -1.2775   -1.1548 C   0  0  0  0  0  0  0  0  0  0  0  0
   -4.0066   -0.1880   -1.8644 C   0  0  0  0  0  0  0  0  0  0  0  0
   -4.5598    0.1282   -3.0911 C   0  0  0  0  0  0  0  0  0  0  0  0
   -5.5820   -0.6453   -3.6084 C   0  0  0  0  0  0  0  0  0  0  0  0
   -6.1855   -0.3002   -4.9455 C   0  0  1  0  0  0  0  0  0  0  0  0
   -5.4855   -0.9645   -5.9584 F   0  0  0  0  0  0  0  0  0  0  0  0
   -7.5268   -0.6970   -4.9682 F   0  0  0  0  0  0  0  0  0  0  0  0
   -6.1042    1.0812   -5.1513 F   0  0  0  0  0  0  0  0  0  0  0  0
   -6.0505   -1.7356   -2.8994 C   0  0  0  0  0  0  0  0  0  0  0  0
   -5.4947   -2.0541   -1.6745 C   0  0  0  0  0  0  0  0  0  0  0  0
   -0.2092    1.6891    2.2791 H   0  0  0  0  0  0  0  0  0  0  0  0
   -0.0587    1.7847    0.5081 H   0  0  0  0  0  0  0  0  0  0  0  0
   -1.6699    1.7379    1.2631 H   0  0  0  0  0  0  0  0  0  0  0  0
   -0.2800   -0.6121    1.9855 H   0  0  0  0  0  0  0  0  0  0  0  0
   -0.9901   -2.1685   -2.0714 H   0  0  0  0  0  0  0  0  0  0  0  0
    0.5713   -2.3704   -1.2397 H   0  0  0  0  0  0  0  0  0  0  0  0
   -0.1238   -4.4910   -2.3024 H   0  0  0  0  0  0  0  0  0  0  0  0
   -0.1163   -4.6545   -0.5302 H   0  0  0  0  0  0  0  0  0  0  0  0
   -2.5755   -4.0637   -2.2397 H   0  0  0  0  0  0  0  0  0  0  0  0
   -2.1684   -5.6453   -1.5304 H   0  0  0  0  0  0  0  0  0  0  0  0
   -3.8174   -4.3346   -0.1466 H   0  0  0  0  0  0  0  0  0  0  0  0
   -2.3140   -4.7149    0.7323 H   0  0  0  0  0  0  0  0  0  0  0  0
   -3.2079    0.4163   -1.4603 H   0  0  0  0  0  0  0  0  0  0  0  0
   -4.1936    0.9799   -3.6452 H   0  0  0  0  0  0  0  0  0  0  0  0
   -6.8489   -2.3402   -3.3038 H   0  0  0  0  0  0  0  0  0  0  0  0
   -5.8606   -2.9060   -1.1205 H   0  0  0  0  0  0  0  0  0  0  0  0
  1  2  1  0
  1 25  1  1
  1 26  1  0
  1 27  1  0
  2  3  1  0
  2 28  1  0
  3  4  2  0
  3  5  1  0
  5  6  1  1
  5 11  1  0
  5  7  1  0
  7  8  1  0
  7 29  1  6
  7 30  1  0
  8  9  1  0
  8 31  1  6
  8 32  1  0
  9 10  1  0
  9 33  1  6
  9 34  1  0
 10 11  1  0
 10 35  1  6
 10 36  1  0
 12 11  1  6
 12 13  2  0
 12 14  2  0
 12 15  1  0
 15 24  2  0
 15 16  1  0
 16 17  2  0
 16 37  1  0
 17 18  1  0
 17 38  1  0
 18 19  1  0
 18 23  2  0
 19 20  1  6
 19 21  1  0
 19 22  1  0
 23 24  1  0
 23 39  1  0
 24 40  1  0
M  END
$$$$
