ZINC000068741251
     RDKit          3D

 36 37  0  0  0  0  0  0  0  0999 V2000
   -0.0564   -0.4267   -0.5150 O   0  0  0  0  0  0  0  0  0  0  0  0
   -0.1441    0.9472   -0.1627 S   0  0  1  0  0  0  0  0  0  0  0  0
    0.9928    1.7505    0.1227 O   0  0  0  0  0  0  0  0  0  0  0  0
   -0.9989    1.7452   -1.4808 C   0  0  0  0  0  0  0  0  0  0  0  0
   -2.3485    2.0189   -1.3636 C   0  0  0  0  0  0  0  0  0  0  0  0
   -3.0193    2.6450   -2.3977 C   0  0  0  0  0  0  0  0  0  0  0  0
   -4.4910    2.9431   -2.2702 C   0  0  1  0  0  0  0  0  0  0  0  0
   -4.6627    4.2104   -1.7032 F   0  0  0  0  0  0  0  0  0  0  0  0
   -5.0841    2.9146   -3.5369 F   0  0  0  0  0  0  0  0  0  0  0  0
   -5.0924    1.9807   -1.4520 F   0  0  0  0  0  0  0  0  0  0  0  0
   -2.3399    2.9981   -3.5485 C   0  0  0  0  0  0  0  0  0  0  0  0
   -0.9897    2.7247   -3.6655 C   0  0  0  0  0  0  0  0  0  0  0  0
   -0.3183    2.1026   -2.6299 C   0  0  0  0  0  0  0  0  0  0  0  0
    1.1535    1.8046   -2.7575 C   0  0  1  0  0  0  0  0  0  0  0  0
    1.5831    2.1217   -4.0505 F   0  0  0  0  0  0  0  0  0  0  0  0
    1.8665    2.5699   -1.8284 F   0  0  0  0  0  0  0  0  0  0  0  0
    1.3771    0.4456   -2.5119 F   0  0  0  0  0  0  0  0  0  0  0  0
   -1.1197    1.0260    1.1730 N   0  0  0  0  0  0  0  0  0  0  0  0
   -1.1338    2.2266    2.0199 C   0  0  1  0  0  0  0  0  0  0  0  0
   -2.5799    2.7110    2.1646 C   0  0  1  0  0  0  0  0  0  0  0  0
   -3.4482    1.5637    2.6861 C   0  0  1  0  0  0  0  0  0  0  0  0
   -3.4242    0.4072    1.6840 C   0  0  1  0  0  0  0  0  0  0  0  0
   -1.9921   -0.1009    1.5304 C   0  0  1  0  0  0  0  0  0  0  0  0
   -2.8793    1.7433   -0.4643 H   0  0  0  0  0  0  0  0  0  0  0  0
   -2.8638    3.4872   -4.3563 H   0  0  0  0  0  0  0  0  0  0  0  0
   -0.4589    3.0003   -4.5648 H   0  0  0  0  0  0  0  0  0  0  0  0
   -0.7293    1.9851    3.0029 H   0  0  0  0  0  0  0  0  0  0  0  0
   -0.5314    3.0078    1.5564 H   0  0  0  0  0  0  0  0  0  0  0  0
   -2.6162    3.5432    2.8675 H   0  0  0  0  0  0  0  0  0  0  0  0
   -2.9531    3.0374    1.1939 H   0  0  0  0  0  0  0  0  0  0  0  0
   -3.0597    1.2212    3.6452 H   0  0  0  0  0  0  0  0  0  0  0  0
   -4.4730    1.9127    2.8133 H   0  0  0  0  0  0  0  0  0  0  0  0
   -4.0613   -0.4002    2.0448 H   0  0  0  0  0  0  0  0  0  0  0  0
   -3.7894    0.7554    0.7178 H   0  0  0  0  0  0  0  0  0  0  0  0
   -1.9547   -0.8567    0.7459 H   0  0  0  0  0  0  0  0  0  0  0  0
   -1.6545   -0.5323    2.4727 H   0  0  0  0  0  0  0  0  0  0  0  0
  1  2  2  0
  2  3  2  0
  2  4  1  0
  2 18  1  1
  4 13  2  0
  4  5  1  0
  5  6  2  0
  5 24  1  0
  6  7  1  0
  6 11  1  0
  7  8  1  1
  7  9  1  0
  7 10  1  0
 11 12  2  0
 11 25  1  0
 12 13  1  0
 12 26  1  0
 13 14  1  0
 14 15  1  6
 14 16  1  0
 14 17  1  0
 18 23  1  0
 18 19  1  0
 19 20  1  0
 19 27  1  1
 19 28  1  0
 20 21  1  0
 20 29  1  1
 20 30  1  0
 21 22  1  0
 21 31  1  1
 21 32  1  0
 22 23  1  0
 22 33  1  1
 22 34  1  0
 23 35  1  6
 23 36  1  0
M  END
$$$$
