ZINC000026765278
     RDKit          3D

 49 50  0  0  0  0  0  0  0  0999 V2000
   -0.0730    1.5500    0.0320 C   0  0  1  0  0  0  0  0  0  0  0  0
   -0.0609    0.0200    0.0295 C   0  0  1  0  0  0  0  0  0  0  0  0
    0.6261   -0.4609   -1.1717 N   0  0  0  0  0  0  0  0  0  0  0  0
    2.0855   -0.5894   -1.1789 C   0  0  1  0  0  0  0  0  0  0  0  0
    2.4811   -1.9442   -0.5883 C   0  0  1  0  0  0  0  0  0  0  0  0
   -0.2468   -0.8594   -2.5214 S   0  0  1  0  0  0  0  0  0  0  0  0
    0.5547   -1.7681   -3.2638 O   0  0  0  0  0  0  0  0  0  0  0  0
   -1.5596   -1.1678   -2.0735 O   0  0  0  0  0  0  0  0  0  0  0  0
   -0.3852    0.5979   -3.5021 C   0  0  0  0  0  0  0  0  0  0  0  0
   -1.4491    1.4599   -3.3128 C   0  0  0  0  0  0  0  0  0  0  0  0
   -1.5576    2.6032   -4.0822 C   0  0  0  0  0  0  0  0  0  0  0  0
   -0.6020    2.8847   -5.0405 C   0  0  0  0  0  0  0  0  0  0  0  0
   -0.7207    4.1309   -5.8797 C   0  0  1  0  0  0  0  0  0  0  0  0
    0.0052    5.2846   -5.1848 C   0  0  1  0  0  0  0  0  0  0  0  0
   -0.1134    6.5308   -6.0239 C   0  0  0  0  0  0  0  0  0  0  0  0
   -0.7189    6.4992   -7.0743 O   0  0  0  0  0  0  0  0  0  0  0  0
    0.4534    7.6803   -5.6071 N   0  0  0  0  0  0  0  0  0  0  0  0
    0.4246    8.8129   -6.4289 C   0  0  0  0  0  0  0  0  0  0  0  0
   -0.6742    9.0546   -7.2421 C   0  0  0  0  0  0  0  0  0  0  0  0
   -0.6999   10.1737   -8.0518 C   0  0  0  0  0  0  0  0  0  0  0  0
    0.3673   11.0527   -8.0534 C   0  0  0  0  0  0  0  0  0  0  0  0
    1.4641   10.8151   -7.2450 C   0  0  0  0  0  0  0  0  0  0  0  0
    1.4935    9.7011   -6.4283 C   0  0  0  0  0  0  0  0  0  0  0  0
    2.9933    9.3767   -5.3232 Br  0  0  0  0  0  0  0  0  0  0  0  0
    0.4626    2.0234   -5.2289 C   0  0  0  0  0  0  0  0  0  0  0  0
    0.5732    0.8821   -4.4569 C   0  0  0  0  0  0  0  0  0  0  0  0
    0.9518    1.9214    0.0264 H   0  0  0  0  0  0  0  0  0  0  0  0
   -0.5951    1.9107   -0.8542 H   0  0  0  0  0  0  0  0  0  0  0  0
   -0.5842    1.9078    0.9257 H   0  0  0  0  0  0  0  0  0  0  0  0
    0.4612   -0.3407    0.9157 H   0  0  0  0  0  0  0  0  0  0  0  0
   -1.0857   -0.3514    0.0351 H   0  0  0  0  0  0  0  0  0  0  0  0
    2.4514   -0.5187   -2.2032 H   0  0  0  0  0  0  0  0  0  0  0  0
    2.5235    0.2096   -0.5807 H   0  0  0  0  0  0  0  0  0  0  0  0
    2.0431   -2.7432   -1.1865 H   0  0  0  0  0  0  0  0  0  0  0  0
    3.5669   -2.0398   -0.5937 H   0  0  0  0  0  0  0  0  0  0  0  0
    2.1152   -2.0149    0.4360 H   0  0  0  0  0  0  0  0  0  0  0  0
   -2.1957    1.2400   -2.5640 H   0  0  0  0  0  0  0  0  0  0  0  0
   -2.3893    3.2764   -3.9348 H   0  0  0  0  0  0  0  0  0  0  0  0
   -0.2713    3.9549   -6.8570 H   0  0  0  0  0  0  0  0  0  0  0  0
   -1.7730    4.3862   -6.0043 H   0  0  0  0  0  0  0  0  0  0  0  0
   -0.4442    5.4606   -4.2074 H   0  0  0  0  0  0  0  0  0  0  0  0
    1.0576    5.0293   -5.0602 H   0  0  0  0  0  0  0  0  0  0  0  0
    0.8813    7.7227   -4.7376 H   0  0  0  0  0  0  0  0  0  0  0  0
   -1.5080    8.3683   -7.2420 H   0  0  0  0  0  0  0  0  0  0  0  0
   -1.5546   10.3620   -8.6845 H   0  0  0  0  0  0  0  0  0  0  0  0
    0.3447   11.9265   -8.6877 H   0  0  0  0  0  0  0  0  0  0  0  0
    2.2963   11.5034   -7.2489 H   0  0  0  0  0  0  0  0  0  0  0  0
    1.2094    2.2435   -5.9774 H   0  0  0  0  0  0  0  0  0  0  0  0
    1.4050    0.2091   -4.6040 H   0  0  0  0  0  0  0  0  0  0  0  0
  1  2  1  0
  1 27  1  6
  1 28  1  0
  1 29  1  0
  2  3  1  0
  2 30  1  1
  2 31  1  0
  3  4  1  0
  6  3  1  1
  4  5  1  0
  4 32  1  6
  4 33  1  0
  5 34  1  6
  5 35  1  0
  5 36  1  0
  6  7  2  0
  6  8  2  0
  6  9  1  0
  9 26  2  0
  9 10  1  0
 10 11  2  0
 10 37  1  0
 11 12  1  0
 11 38  1  0
 12 13  1  0
 12 25  2  0
 13 14  1  0
 13 39  1  6
 13 40  1  0
 14 15  1  0
 14 41  1  1
 14 42  1  0
 15 16  2  0
 15 17  1  0
 17 18  1  0
 17 43  1  0
 18 23  2  0
 18 19  1  0
 19 20  2  0
 19 44  1  0
 20 21  1  0
 20 45  1  0
 21 22  2  0
 21 46  1  0
 22 23  1  0
 22 47  1  0
 23 24  1  0
 25 26  1  0
 25 48  1  0
 26 49  1  0
M  END
$$$$
