ZINC000222747558
     RDKit          3D

 54 55  0  0  0  0  0  0  0  0999 V2000
   -0.0217    1.5523    0.0239 C   0  0  1  0  0  0  0  0  0  0  0  0
    0.0073    0.0225    0.0212 C   0  0  1  0  0  0  0  0  0  0  0  0
    0.6993   -0.4507   -1.1803 N   0  0  0  0  0  0  0  0  0  0  0  0
    2.1600   -0.5629   -1.1879 C   0  0  1  0  0  0  0  0  0  0  0  0
    2.5708   -1.9133   -0.5976 C   0  0  1  0  0  0  0  0  0  0  0  0
   -0.1695   -0.8586   -2.5297 S   0  0  1  0  0  0  0  0  0  0  0  0
    0.6417   -1.7583   -3.2724 O   0  0  0  0  0  0  0  0  0  0  0  0
   -1.4787   -1.1816   -2.0815 O   0  0  0  0  0  0  0  0  0  0  0  0
   -0.3243    0.5971   -3.5102 C   0  0  0  0  0  0  0  0  0  0  0  0
   -1.3984    1.4467   -3.3195 C   0  0  0  0  0  0  0  0  0  0  0  0
   -1.5220    2.5887   -4.0869 C   0  0  0  0  0  0  0  0  0  0  0  0
   -0.5671    2.8830   -5.0494 C   0  0  0  0  0  0  0  0  0  0  0  0
   -0.6863    4.0060   -5.8053 O   0  0  0  0  0  0  0  0  0  0  0  0
    0.3339    4.2454   -6.7769 C   0  0  1  0  0  0  0  0  0  0  0  0
    0.0359    5.5260   -7.5132 C   0  0  0  0  0  0  0  0  0  0  0  0
   -0.9529    6.1703   -7.2335 O   0  0  0  0  0  0  0  0  0  0  0  0
    0.8681    5.9553   -8.4825 N   0  0  0  0  0  0  0  0  0  0  0  0
    0.5422    7.0911   -9.2320 C   0  0  0  0  0  0  0  0  0  0  0  0
    0.8792    7.1570  -10.5776 C   0  0  0  0  0  0  0  0  0  0  0  0
    0.5561    8.2795  -11.3147 C   0  0  0  0  0  0  0  0  0  0  0  0
   -0.1016    9.3372  -10.7139 C   0  0  0  0  0  0  0  0  0  0  0  0
   -0.4521   10.5607  -11.5210 C   0  0  1  0  0  0  0  0  0  0  0  0
   -1.8187   10.3852  -12.1315 C   0  0  0  0  0  0  0  0  0  0  0  0
   -2.3434   11.3599  -12.9004 N   0  0  0  0  0  0  0  0  0  0  0  0
   -2.4462    9.3669  -11.9310 O   0  0  0  0  0  0  0  0  0  0  0  0
   -0.4389    9.2744   -9.3744 C   0  0  0  0  0  0  0  0  0  0  0  0
   -0.1238    8.1524   -8.6332 C   0  0  0  0  0  0  0  0  0  0  0  0
    0.5098    2.0292   -5.2385 C   0  0  0  0  0  0  0  0  0  0  0  0
    0.6315    0.8909   -4.4651 C   0  0  0  0  0  0  0  0  0  0  0  0
    0.9989    1.9350    0.0180 H   0  0  0  0  0  0  0  0  0  0  0  0
   -0.5480    1.9073   -0.8622 H   0  0  0  0  0  0  0  0  0  0  0  0
   -0.5366    1.9043    0.9178 H   0  0  0  0  0  0  0  0  0  0  0  0
    0.5336   -0.3325    0.9072 H   0  0  0  0  0  0  0  0  0  0  0  0
   -1.0133   -0.3602    0.0271 H   0  0  0  0  0  0  0  0  0  0  0  0
    2.5248   -0.4881   -2.2123 H   0  0  0  0  0  0  0  0  0  0  0  0
    2.5893    0.2408   -0.5897 H   0  0  0  0  0  0  0  0  0  0  0  0
    2.2060   -1.9882    0.4269 H   0  0  0  0  0  0  0  0  0  0  0  0
    2.1415   -2.7171   -1.1957 H   0  0  0  0  0  0  0  0  0  0  0  0
    3.6576   -1.9969   -0.6032 H   0  0  0  0  0  0  0  0  0  0  0  0
   -2.1414    1.2172   -2.5701 H   0  0  0  0  0  0  0  0  0  0  0  0
   -2.3615    3.2516   -3.9381 H   0  0  0  0  0  0  0  0  0  0  0  0
    1.2990    4.3297   -6.2771 H   0  0  0  0  0  0  0  0  0  0  0  0
    0.3627    3.4173   -7.4851 H   0  0  0  0  0  0  0  0  0  0  0  0
    1.6929    5.4769   -8.6606 H   0  0  0  0  0  0  0  0  0  0  0  0
    1.3935    6.3316  -11.0472 H   0  0  0  0  0  0  0  0  0  0  0  0
    0.8179    8.3314  -12.3612 H   0  0  0  0  0  0  0  0  0  0  0  0
   -0.4539   11.4361  -10.8716 H   0  0  0  0  0  0  0  0  0  0  0  0
    0.2847   10.6971  -12.3126 H   0  0  0  0  0  0  0  0  0  0  0  0
   -1.8415   12.1743  -13.0607 H   0  0  0  0  0  0  0  0  0  0  0  0
   -3.2231   11.2469  -13.2933 H   0  0  0  0  0  0  0  0  0  0  0  0
   -0.9526   10.1021   -8.9081 H   0  0  0  0  0  0  0  0  0  0  0  0
   -0.3875    8.1040   -7.5870 H   0  0  0  0  0  0  0  0  0  0  0  0
    1.2543    2.2559   -5.9873 H   0  0  0  0  0  0  0  0  0  0  0  0
    1.4699    0.2261   -4.6117 H   0  0  0  0  0  0  0  0  0  0  0  0
  1  2  1  0
  1 30  1  6
  1 31  1  0
  1 32  1  0
  2  3  1  0
  2 33  1  1
  2 34  1  0
  3  4  1  0
  6  3  1  1
  4  5  1  0
  4 35  1  6
  4 36  1  0
  5 37  1  1
  5 38  1  0
  5 39  1  0
  6  7  2  0
  6  8  2  0
  6  9  1  0
  9 29  2  0
  9 10  1  0
 10 11  2  0
 10 40  1  0
 11 12  1  0
 11 41  1  0
 12 13  1  0
 12 28  2  0
 13 14  1  0
 14 15  1  0
 14 42  1  1
 14 43  1  0
 15 16  2  0
 15 17  1  0
 17 18  1  0
 17 44  1  0
 18 27  2  0
 18 19  1  0
 19 20  2  0
 19 45  1  0
 20 21  1  0
 20 46  1  0
 21 22  1  0
 21 26  2  0
 22 23  1  0
 22 47  1  1
 22 48  1  0
 23 24  1  0
 23 25  2  0
 24 49  1  0
 24 50  1  0
 26 27  1  0
 26 51  1  0
 27 52  1  0
 28 29  1  0
 28 53  1  0
 29 54  1  0
M  END
$$$$
