ZINC000002869077
     RDKit          3D

 46 48  0  0  1  0  0  0  0  0999 V2000
    1.0747   -1.5307    0.5621 C   0  0  1  0  0  0  0  0  0  0  0  0
   -0.0940   -0.5794    0.5732 C   0  0  0  0  0  0  0  0  0  0  0  0
    0.0465    0.5506    0.9966 O   0  0  0  0  0  0  0  0  0  0  0  0
   -1.3467   -0.9996    0.0938 C   0  0  0  0  0  0  0  0  0  0  0  0
   -1.6873   -2.2428   -0.3107 C   0  0  0  0  0  0  0  0  0  0  0  0
   -0.7414   -3.4160   -0.3111 C   0  0  1  0  0  0  0  0  0  0  0  0
   -2.9834   -2.3126   -0.7176 N   0  0  0  0  0  0  0  0  0  0  0  0
   -3.6205   -3.5378   -1.2069 C   0  0  1  0  0  0  0  0  0  0  0  0
   -4.2376   -4.2798   -0.0495 C   0  0  0  0  0  0  0  0  0  0  0  0
   -3.4945   -5.2138    0.6479 C   0  0  0  0  0  0  0  0  0  0  0  0
   -4.0606   -5.8944    1.7096 C   0  0  0  0  0  0  0  0  0  0  0  0
   -5.3696   -5.6407    2.0742 C   0  0  0  0  0  0  0  0  0  0  0  0
   -6.1125   -4.7061    1.3774 C   0  0  0  0  0  0  0  0  0  0  0  0
   -5.5450   -4.0224    0.3184 C   0  0  0  0  0  0  0  0  0  0  0  0
   -3.6139   -1.1272   -0.6193 C   0  0  0  0  0  0  0  0  0  0  0  0
   -4.7670   -0.8890   -0.9084 O   0  0  0  0  0  0  0  0  0  0  0  0
   -2.5927   -0.1517   -0.0685 C   0  0  2  0  0  0  0  0  0  0  0  0
   -2.3490    0.9334   -1.0222 N   0  0  0  0  0  0  0  0  0  0  0  0
   -3.3571    1.7511   -1.3847 C   0  0  0  0  0  0  0  0  0  0  0  0
   -4.4661    1.5887   -0.9215 O   0  0  0  0  0  0  0  0  0  0  0  0
   -3.1063    2.8673   -2.3657 C   0  0  1  0  0  0  0  0  0  0  0  0
   -3.7492    2.7497   -3.7491 C   0  0  1  0  0  0  0  0  0  0  0  0
   -4.2914    3.7610   -2.7370 C   0  0  1  0  0  0  0  0  0  0  0  0
   -3.0533    0.4068    1.2794 C   0  0  1  0  0  0  0  0  0  0  0  0
   -3.0709   -0.6208    2.2285 F   0  0  0  0  0  0  0  0  0  0  0  0
   -2.1710    1.4100    1.6945 F   0  0  0  0  0  0  0  0  0  0  0  0
   -4.3392    0.9420    1.1476 F   0  0  0  0  0  0  0  0  0  0  0  0
    1.9287   -1.0628    1.0520 H   0  0  0  0  0  0  0  0  0  0  0  0
    0.8057   -2.4431    1.0943 H   0  0  0  0  0  0  0  0  0  0  0  0
    1.3352   -1.7742   -0.4679 H   0  0  0  0  0  0  0  0  0  0  0  0
   -0.7280   -3.8723    0.6787 H   0  0  0  0  0  0  0  0  0  0  0  0
   -1.0733   -4.1501   -1.0452 H   0  0  0  0  0  0  0  0  0  0  0  0
    0.2614   -3.0740   -0.5670 H   0  0  0  0  0  0  0  0  0  0  0  0
   -4.3958   -3.2808   -1.9286 H   0  0  0  0  0  0  0  0  0  0  0  0
   -2.8727   -4.1696   -1.6863 H   0  0  0  0  0  0  0  0  0  0  0  0
   -2.4717   -5.4119    0.3631 H   0  0  0  0  0  0  0  0  0  0  0  0
   -3.4802   -6.6246    2.2540 H   0  0  0  0  0  0  0  0  0  0  0  0
   -5.8121   -6.1730    2.9032 H   0  0  0  0  0  0  0  0  0  0  0  0
   -7.1353   -4.5082    1.6620 H   0  0  0  0  0  0  0  0  0  0  0  0
   -6.1253   -3.2921   -0.2260 H   0  0  0  0  0  0  0  0  0  0  0  0
   -1.4620    1.0633   -1.3926 H   0  0  0  0  0  0  0  0  0  0  0  0
   -2.1233    3.3343   -2.3052 H   0  0  0  0  0  0  0  0  0  0  0  0
   -3.1890    3.1393   -4.5991 H   0  0  0  0  0  0  0  0  0  0  0  0
   -4.3535    1.8650   -3.9497 H   0  0  0  0  0  0  0  0  0  0  0  0
   -5.2524    3.5416   -2.2718 H   0  0  0  0  0  0  0  0  0  0  0  0
   -4.0879    4.8158   -2.9212 H   0  0  0  0  0  0  0  0  0  0  0  0
  1  2  1  0
  1 28  1  1
  1 29  1  0
  1 30  1  0
  2  3  2  0
  2  4  1  0
  4 17  1  0
  4  5  2  0
  5  6  1  0
  5  7  1  0
  6 31  1  1
  6 32  1  0
  6 33  1  0
  7  8  1  0
  7 15  1  0
  8  9  1  0
  8 34  1  6
  8 35  1  0
  9 14  2  0
  9 10  1  0
 10 11  2  0
 10 36  1  0
 11 12  1  0
 11 37  1  0
 12 13  2  0
 12 38  1  0
 13 14  1  0
 13 39  1  0
 14 40  1  0
 15 16  2  0
 15 17  1  0
 17 18  1  6
 17 24  1  0
 18 19  1  0
 18 41  1  0
 19 20  2  0
 19 21  1  0
 21 23  1  0
 21 22  1  0
 21 42  1  6
 22 23  1  0
 22 43  1  6
 22 44  1  0
 23 45  1  1
 23 46  1  0
 24 25  1  1
 24 26  1  0
 24 27  1  0
M  END
$$$$
