ZINC000006587451
     RDKit          3D

 37 37  0  0  0  0  0  0  0  0999 V2000
   -0.0173    1.4248    0.0099 C   0  0  1  0  0  0  0  0  0  0  0  0
    0.0021   -0.0041    0.0020 O   0  0  0  0  0  0  0  0  0  0  0  0
   -1.2953   -0.6030    0.0112 C   0  0  1  0  0  0  0  0  0  0  0  0
   -1.1538   -2.1264    0.0017 C   0  0  1  0  0  0  0  0  0  0  0  0
   -2.5429   -2.7677    0.0115 C   0  0  1  0  0  0  0  0  0  0  0  0
   -2.4075   -4.2264    0.0023 N   0  0  0  0  0  0  0  0  0  0  0  0
   -2.2176   -4.9523    1.2606 C   0  0  1  0  0  0  0  0  0  0  0  0
   -3.5592   -5.2254    1.8904 C   0  0  0  0  0  0  0  0  0  0  0  0
   -3.6312   -5.8861    3.0629 N   0  0  0  0  0  0  0  0  0  0  0  0
   -4.5740   -4.8505    1.3422 O   0  0  0  0  0  0  0  0  0  0  0  0
   -2.4690   -5.0547   -1.4303 S   0  0  1  0  0  0  0  0  0  0  0  0
   -2.8632   -6.3818   -1.1099 O   0  0  0  0  0  0  0  0  0  0  0  0
   -3.1837   -4.2299   -2.3403 O   0  0  0  0  0  0  0  0  0  0  0  0
   -0.8204   -5.1597   -2.0433 C   0  0  0  0  0  0  0  0  0  0  0  0
   -0.3254   -4.1673   -2.8685 C   0  0  0  0  0  0  0  0  0  0  0  0
    0.9680   -4.2497   -3.3494 C   0  0  0  0  0  0  0  0  0  0  0  0
    1.7665   -5.3242   -3.0048 C   0  0  0  0  0  0  0  0  0  0  0  0
    1.2717   -6.3161   -2.1788 C   0  0  0  0  0  0  0  0  0  0  0  0
   -0.0202   -6.2315   -1.6944 C   0  0  0  0  0  0  0  0  0  0  0  0
    1.0053    1.8021    0.0021 H   0  0  0  0  0  0  0  0  0  0  0  0
   -0.5445    1.7859   -0.8732 H   0  0  0  0  0  0  0  0  0  0  0  0
   -0.5275    1.7763    0.9067 H   0  0  0  0  0  0  0  0  0  0  0  0
   -1.8320   -0.2936    0.9080 H   0  0  0  0  0  0  0  0  0  0  0  0
   -1.8490   -0.2840   -0.8718 H   0  0  0  0  0  0  0  0  0  0  0  0
   -0.6171   -2.4359   -0.8952 H   0  0  0  0  0  0  0  0  0  0  0  0
   -0.6001   -2.4454    0.8847 H   0  0  0  0  0  0  0  0  0  0  0  0
   -3.0796   -2.4582    0.9083 H   0  0  0  0  0  0  0  0  0  0  0  0
   -3.0966   -2.4487   -0.8716 H   0  0  0  0  0  0  0  0  0  0  0  0
   -1.7103   -5.8965    1.0624 H   0  0  0  0  0  0  0  0  0  0  0  0
   -1.6132   -4.3507    1.9395 H   0  0  0  0  0  0  0  0  0  0  0  0
   -2.8196   -6.1859    3.5013 H   0  0  0  0  0  0  0  0  0  0  0  0
   -4.4947   -6.0619    3.4683 H   0  0  0  0  0  0  0  0  0  0  0  0
   -0.9492   -3.3278   -3.1378 H   0  0  0  0  0  0  0  0  0  0  0  0
    1.3546   -3.4747   -3.9947 H   0  0  0  0  0  0  0  0  0  0  0  0
    2.7767   -5.3889   -3.3811 H   0  0  0  0  0  0  0  0  0  0  0  0
    1.8954   -7.1557   -1.9098 H   0  0  0  0  0  0  0  0  0  0  0  0
   -0.4068   -7.0065   -1.0491 H   0  0  0  0  0  0  0  0  0  0  0  0
  1  2  1  0
  1 20  1  6
  1 21  1  0
  1 22  1  0
  2  3  1  0
  3  4  1  0
  3 23  1  1
  3 24  1  0
  4  5  1  0
  4 25  1  6
  4 26  1  0
  5  6  1  0
  5 27  1  1
  5 28  1  0
  6  7  1  0
 11  6  1  1
  7  8  1  0
  7 29  1  6
  7 30  1  0
  8  9  1  0
  8 10  2  0
  9 31  1  0
  9 32  1  0
 11 12  2  0
 11 13  2  0
 11 14  1  0
 14 19  2  0
 14 15  1  0
 15 16  2  0
 15 33  1  0
 16 17  1  0
 16 34  1  0
 17 18  2  0
 17 35  1  0
 18 19  1  0
 18 36  1  0
 19 37  1  0
M  END
$$$$
