ZINC000057761894
     RDKit          3D

 45 48  0  0  1  0  0  0  0  0999 V2000
    0.3569   -0.0680    0.2095 O   0  0  0  0  0  0  0  0  0  0  0  0
    0.3142    1.3520    0.1789 S   0  0  1  0  0  0  0  0  0  0  0  0
    1.4462    2.1695    0.4426 O   0  0  0  0  0  0  0  0  0  0  0  0
   -0.2585    1.7981   -1.4267 C   0  0  0  0  0  0  0  0  0  0  0  0
   -1.0096    0.9035   -2.1658 C   0  0  0  0  0  0  0  0  0  0  0  0
   -1.4589    1.2534   -3.4254 C   0  0  0  0  0  0  0  0  0  0  0  0
   -1.1574    2.4981   -3.9457 C   0  0  0  0  0  0  0  0  0  0  0  0
   -1.6467    2.8794   -5.3191 C   0  0  1  0  0  0  0  0  0  0  0  0
   -2.9030    3.4863   -5.2147 F   0  0  0  0  0  0  0  0  0  0  0  0
   -0.7440    3.7738   -5.9041 F   0  0  0  0  0  0  0  0  0  0  0  0
   -1.7476    1.7322   -6.1133 F   0  0  0  0  0  0  0  0  0  0  0  0
   -0.4074    3.3933   -3.2060 C   0  0  0  0  0  0  0  0  0  0  0  0
    0.0386    3.0447   -1.9448 C   0  0  0  0  0  0  0  0  0  0  0  0
   -0.8541    1.8081    1.2602 N   0  0  0  0  0  0  0  0  0  0  0  0
   -0.9665    3.1337    1.8955 C   0  0  1  0  0  0  0  0  0  0  0  0
   -2.4616    3.2640    2.2793 C   0  0  1  0  0  0  0  0  0  0  0  0
   -2.8002    1.8125    2.7105 C   0  0  1  0  0  0  0  0  0  0  0  0
   -1.9547    0.9601    1.7409 C   0  0  2  0  0  0  0  0  0  0  0  0
   -2.5698    0.6321    0.9029 H   0  0  0  0  0  0  0  0  0  0  0  0
   -1.3870   -0.2554    2.4765 C   0  0  1  0  0  0  0  0  0  0  0  0
   -2.4877   -1.1044    2.9388 N   0  0  0  0  0  0  0  0  0  0  0  0
   -3.0096   -1.0715    4.1150 N   0  0  0  0  0  0  0  0  0  0  0  0
   -3.9525   -1.9491    4.1807 N   0  0  0  0  0  0  0  0  0  0  0  0
   -4.0164   -2.5548    2.9849 C   0  0  0  0  0  0  0  0  0  0  0  0
   -4.9488   -3.6326    2.5886 C   0  0  0  0  0  0  0  0  0  0  0  0
   -5.8939   -4.1742    3.3815 C   0  0  0  0  0  0  0  0  0  0  0  0
   -6.6445   -5.1683    2.7880 C   0  0  0  0  0  0  0  0  0  0  0  0
   -6.3208   -5.4418    1.5209 C   0  0  0  0  0  0  0  0  0  0  0  0
   -5.0004   -4.4002    1.0068 S   0  0  0  0  0  0  0  0  0  0  0  0
   -3.0885   -1.9972    2.2297 N   0  0  0  0  0  0  0  0  0  0  0  0
   -1.2451   -0.0690   -1.7594 H   0  0  0  0  0  0  0  0  0  0  0  0
   -2.0451    0.5542   -4.0032 H   0  0  0  0  0  0  0  0  0  0  0  0
   -0.1722    4.3659   -3.6123 H   0  0  0  0  0  0  0  0  0  0  0  0
    0.6246    3.7441   -1.3669 H   0  0  0  0  0  0  0  0  0  0  0  0
   -0.3405    3.1817    2.7865 H   0  0  0  0  0  0  0  0  0  0  0  0
   -0.6860    3.9169    1.1912 H   0  0  0  0  0  0  0  0  0  0  0  0
   -2.5929    3.9587    3.1090 H   0  0  0  0  0  0  0  0  0  0  0  0
   -3.0606    3.5662    1.4203 H   0  0  0  0  0  0  0  0  0  0  0  0
   -2.5017    1.6377    3.7441 H   0  0  0  0  0  0  0  0  0  0  0  0
   -3.8621    1.6077    2.5747 H   0  0  0  0  0  0  0  0  0  0  0  0
   -0.7489   -0.8241    1.8001 H   0  0  0  0  0  0  0  0  0  0  0  0
   -0.8016    0.0790    3.3330 H   0  0  0  0  0  0  0  0  0  0  0  0
   -6.0514   -3.8556    4.4013 H   0  0  0  0  0  0  0  0  0  0  0  0
   -7.4352   -5.6874    3.3094 H   0  0  0  0  0  0  0  0  0  0  0  0
   -6.8007   -6.1870    0.9039 H   0  0  0  0  0  0  0  0  0  0  0  0
  1  2  2  0
  2  3  2  0
  2  4  1  0
  2 14  1  1
  4 13  2  0
  4  5  1  0
  5  6  2  0
  5 31  1  0
  6  7  1  0
  6 32  1  0
  7  8  1  0
  7 12  2  0
  8  9  1  1
  8 10  1  0
  8 11  1  0
 12 13  1  0
 12 33  1  0
 13 34  1  0
 14 18  1  0
 14 15  1  0
 15 16  1  0
 15 35  1  1
 15 36  1  0
 16 17  1  0
 16 37  1  1
 16 38  1  0
 17 18  1  0
 17 39  1  1
 17 40  1  0
 18 19  1  6
 18 20  1  0
 20 21  1  0
 20 41  1  6
 20 42  1  0
 21 30  1  0
 21 22  1  0
 22 23  2  0
 23 24  1  0
 24 25  1  0
 24 30  2  0
 25 29  1  0
 25 26  2  0
 26 27  1  0
 26 43  1  0
 27 28  2  0
 27 44  1  0
 28 29  1  0
 28 45  1  0
M  END
$$$$
