ZINC000001061237
     RDKit          3D

 48 50  0  0  0  0  0  0  0  0999 V2000
    8.2744   -5.8911    5.7897 C   0  0  1  0  0  0  0  0  0  0  0  0
    7.8990   -4.5731    6.1944 O   0  0  0  0  0  0  0  0  0  0  0  0
    6.6804   -4.1270    5.7900 C   0  0  0  0  0  0  0  0  0  0  0  0
    5.8610   -4.9428    5.0247 C   0  0  0  0  0  0  0  0  0  0  0  0
    4.6223   -4.4873    4.6150 C   0  0  0  0  0  0  0  0  0  0  0  0
    4.1994   -3.2192    4.9668 C   0  0  0  0  0  0  0  0  0  0  0  0
    2.6193   -2.6420    4.4425 S   0  0  1  0  0  0  0  0  0  0  0  0
    2.6941   -1.2230    4.4306 O   0  0  0  0  0  0  0  0  0  0  0  0
    2.2699   -3.4114    3.3001 O   0  0  0  0  0  0  0  0  0  0  0  0
    1.5333   -3.0431    5.6266 N   0  0  0  0  0  0  0  0  0  0  0  0
    0.9400   -4.3823    5.6531 C   0  0  1  0  0  0  0  0  0  0  0  0
    1.7328   -5.2646    6.5827 C   0  0  0  0  0  0  0  0  0  0  0  0
    2.6983   -4.8187    7.1656 O   0  0  0  0  0  0  0  0  0  0  0  0
    1.3688   -6.5493    6.7663 N   0  0  0  0  0  0  0  0  0  0  0  0
    2.1395   -7.4070    7.6699 C   0  0  1  0  0  0  0  0  0  0  0  0
    1.3570   -8.3122    8.6234 C   0  0  1  0  0  0  0  0  0  0  0  0
    2.0906   -8.9163    7.4243 C   0  0  1  0  0  0  0  0  0  0  0  0
    1.1658   -2.0588    6.6474 C   0  0  1  0  0  0  0  0  0  0  0  0
   -0.1071   -1.3630    6.2392 C   0  0  0  0  0  0  0  0  0  0  0  0
   -0.0503   -0.1551    5.5694 C   0  0  0  0  0  0  0  0  0  0  0  0
   -1.2179    0.4831    5.1949 C   0  0  0  0  0  0  0  0  0  0  0  0
   -2.4423   -0.0867    5.4899 C   0  0  0  0  0  0  0  0  0  0  0  0
   -2.4991   -1.2950    6.1590 C   0  0  0  0  0  0  0  0  0  0  0  0
   -1.3314   -1.9354    6.5297 C   0  0  0  0  0  0  0  0  0  0  0  0
    5.0140   -2.4028    5.7300 C   0  0  0  0  0  0  0  0  0  0  0  0
    6.2515   -2.8555    6.1472 C   0  0  0  0  0  0  0  0  0  0  0  0
    7.2740   -1.8307    7.1052 Cl  0  0  0  0  0  0  0  0  0  0  0  0
    8.2887   -5.9468    4.7012 H   0  0  0  0  0  0  0  0  0  0  0  0
    9.2663   -6.1219    6.1783 H   0  0  0  0  0  0  0  0  0  0  0  0
    7.5547   -6.6102    6.1809 H   0  0  0  0  0  0  0  0  0  0  0  0
    6.1908   -5.9335    4.7486 H   0  0  0  0  0  0  0  0  0  0  0  0
    3.9840   -5.1227    4.0189 H   0  0  0  0  0  0  0  0  0  0  0  0
   -0.0897   -4.3166    6.0046 H   0  0  0  0  0  0  0  0  0  0  0  0
    0.9548   -4.8063    4.6491 H   0  0  0  0  0  0  0  0  0  0  0  0
    0.5966   -6.9059    6.3001 H   0  0  0  0  0  0  0  0  0  0  0  0
    3.0777   -6.9861    8.0314 H   0  0  0  0  0  0  0  0  0  0  0  0
    1.7803   -8.4869    9.6125 H   0  0  0  0  0  0  0  0  0  0  0  0
    0.2688   -8.2696    8.5783 H   0  0  0  0  0  0  0  0  0  0  0  0
    1.4850   -9.2712    6.5904 H   0  0  0  0  0  0  0  0  0  0  0  0
    2.9965   -9.4885    7.6246 H   0  0  0  0  0  0  0  0  0  0  0  0
    1.0139   -2.5640    7.6013 H   0  0  0  0  0  0  0  0  0  0  0  0
    1.9650   -1.3244    6.7484 H   0  0  0  0  0  0  0  0  0  0  0  0
    0.9063    0.2901    5.3389 H   0  0  0  0  0  0  0  0  0  0  0  0
   -1.1736    1.4272    4.6722 H   0  0  0  0  0  0  0  0  0  0  0  0
   -3.3545    0.4123    5.1980 H   0  0  0  0  0  0  0  0  0  0  0  0
   -3.4557   -1.7401    6.3898 H   0  0  0  0  0  0  0  0  0  0  0  0
   -1.3757   -2.8794    7.0524 H   0  0  0  0  0  0  0  0  0  0  0  0
    4.6814   -1.4124    6.0036 H   0  0  0  0  0  0  0  0  0  0  0  0
  1  2  1  0
  1 28  1  6
  1 29  1  0
  1 30  1  0
  2  3  1  0
  3 26  2  0
  3  4  1  0
  4  5  2  0
  4 31  1  0
  5  6  1  0
  5 32  1  0
  6  7  1  0
  6 25  2  0
  7  8  2  0
  7  9  2  0
  7 10  1  1
 10 11  1  0
 10 18  1  0
 11 12  1  0
 11 33  1  1
 11 34  1  0
 12 13  2  0
 12 14  1  0
 14 15  1  0
 14 35  1  0
 15 17  1  0
 15 16  1  0
 15 36  1  1
 16 17  1  0
 16 37  1  1
 16 38  1  0
 17 39  1  6
 17 40  1  0
 18 19  1  0
 18 41  1  1
 18 42  1  0
 19 24  2  0
 19 20  1  0
 20 21  2  0
 20 43  1  0
 21 22  1  0
 21 44  1  0
 22 23  2  0
 22 45  1  0
 23 24  1  0
 23 46  1  0
 24 47  1  0
 25 26  1  0
 25 48  1  0
 26 27  1  0
M  END
$$$$
