ZINC000009630994
     RDKit          3D

 63 65  0  0  0  0  0  0  0  0999 V2000
   -0.0046    1.3834    0.0535 C   0  0  1  0  0  0  0  0  0  0  0  0
   -0.0084   -0.1464    0.0313 C   0  0  1  0  0  0  0  0  0  0  0  0
   -1.3908   -0.6315    0.0361 N   0  0  0  0  0  0  0  0  0  0  0  0
   -2.1293   -0.7514   -1.2235 C   0  0  1  0  0  0  0  0  0  0  0  0
   -1.8132   -2.0998   -1.8736 C   0  0  1  0  0  0  0  0  0  0  0  0
   -2.1185   -1.0443    1.4652 S   0  0  1  0  0  0  0  0  0  0  0  0
   -3.1603   -1.9533    1.1371 O   0  0  0  0  0  0  0  0  0  0  0  0
   -1.0711   -1.3574    2.3730 O   0  0  0  0  0  0  0  0  0  0  0  0
   -2.9014    0.4054    2.0896 C   0  0  0  0  0  0  0  0  0  0  0  0
   -2.2045    1.2613    2.9219 C   0  0  0  0  0  0  0  0  0  0  0  0
   -2.8137    2.4006    3.4151 C   0  0  0  0  0  0  0  0  0  0  0  0
   -4.1256    2.6870    3.0755 C   0  0  0  0  0  0  0  0  0  0  0  0
   -4.7258    3.8071    3.5593 O   0  0  0  0  0  0  0  0  0  0  0  0
   -3.9440    4.6448    4.4132 C   0  0  1  0  0  0  0  0  0  0  0  0
   -4.8287    1.8248    2.2367 C   0  0  0  0  0  0  0  0  0  0  0  0
   -6.1560    2.1097    1.8894 N   0  0  0  0  0  0  0  0  0  0  0  0
   -6.9847    1.1130    1.5203 C   0  0  0  0  0  0  0  0  0  0  0  0
   -6.6145   -0.0401    1.5881 O   0  0  0  0  0  0  0  0  0  0  0  0
   -8.3714    1.4312    1.0233 C   0  0  1  0  0  0  0  0  0  0  0  0
   -9.0986    0.1312    0.6736 C   0  0  1  0  0  0  0  0  0  0  0  0
   -9.3008   -0.6836    1.9251 C   0  0  0  0  0  0  0  0  0  0  0  0
   -9.2195   -2.0625    1.8728 C   0  0  0  0  0  0  0  0  0  0  0  0
   -9.4050   -2.8099    3.0208 C   0  0  0  0  0  0  0  0  0  0  0  0
   -9.6714   -2.1783    4.2212 C   0  0  0  0  0  0  0  0  0  0  0  0
   -9.7518   -0.7993    4.2737 C   0  0  0  0  0  0  0  0  0  0  0  0
   -9.5620   -0.0517    3.1266 C   0  0  0  0  0  0  0  0  0  0  0  0
  -10.4378    0.4536    0.0623 C   0  0  0  0  0  0  0  0  0  0  0  0
  -11.4060    1.0908    0.8155 C   0  0  0  0  0  0  0  0  0  0  0  0
  -12.6344    1.3865    0.2546 C   0  0  0  0  0  0  0  0  0  0  0  0
  -12.8944    1.0454   -1.0595 C   0  0  0  0  0  0  0  0  0  0  0  0
  -11.9258    0.4091   -1.8130 C   0  0  0  0  0  0  0  0  0  0  0  0
  -10.6959    0.1172   -1.2535 C   0  0  0  0  0  0  0  0  0  0  0  0
   -4.2093    0.6871    1.7414 C   0  0  0  0  0  0  0  0  0  0  0  0
    1.0239    1.7443    0.0499 H   0  0  0  0  0  0  0  0  0  0  0  0
   -0.5251    1.7608   -0.8267 H   0  0  0  0  0  0  0  0  0  0  0  0
   -0.5100    1.7350    0.9530 H   0  0  0  0  0  0  0  0  0  0  0  0
    0.4969   -0.4980   -0.8682 H   0  0  0  0  0  0  0  0  0  0  0  0
    0.5121   -0.5238    0.9115 H   0  0  0  0  0  0  0  0  0  0  0  0
   -3.1991   -0.6856   -1.0250 H   0  0  0  0  0  0  0  0  0  0  0  0
   -1.8342    0.0542   -1.8958 H   0  0  0  0  0  0  0  0  0  0  0  0
   -2.1083   -2.9054   -1.2013 H   0  0  0  0  0  0  0  0  0  0  0  0
   -2.3627   -2.1890   -2.8108 H   0  0  0  0  0  0  0  0  0  0  0  0
   -0.7435   -2.1657   -2.0721 H   0  0  0  0  0  0  0  0  0  0  0  0
   -1.1816    1.0394    3.1880 H   0  0  0  0  0  0  0  0  0  0  0  0
   -2.2665    3.0670    4.0654 H   0  0  0  0  0  0  0  0  0  0  0  0
   -4.5408    5.5009    4.7278 H   0  0  0  0  0  0  0  0  0  0  0  0
   -3.6308    4.0783    5.2902 H   0  0  0  0  0  0  0  0  0  0  0  0
   -3.0641    4.9941    3.8730 H   0  0  0  0  0  0  0  0  0  0  0  0
   -6.4783    3.0242    1.9147 H   0  0  0  0  0  0  0  0  0  0  0  0
   -8.9239    1.9587    1.8009 H   0  0  0  0  0  0  0  0  0  0  0  0
   -8.3038    2.0598    0.1355 H   0  0  0  0  0  0  0  0  0  0  0  0
   -8.5018   -0.4387   -0.0385 H   0  0  0  0  0  0  0  0  0  0  0  0
   -9.0115   -2.5560    0.9349 H   0  0  0  0  0  0  0  0  0  0  0  0
   -9.3422   -3.8873    2.9797 H   0  0  0  0  0  0  0  0  0  0  0  0
   -9.8170   -2.7623    5.1180 H   0  0  0  0  0  0  0  0  0  0  0  0
   -9.9602   -0.3059    5.2116 H   0  0  0  0  0  0  0  0  0  0  0  0
   -9.6248    1.0257    3.1676 H   0  0  0  0  0  0  0  0  0  0  0  0
  -11.2029    1.3573    1.8422 H   0  0  0  0  0  0  0  0  0  0  0  0
  -13.3912    1.8837    0.8433 H   0  0  0  0  0  0  0  0  0  0  0  0
  -13.8543    1.2758   -1.4974 H   0  0  0  0  0  0  0  0  0  0  0  0
  -12.1290    0.1423   -2.8396 H   0  0  0  0  0  0  0  0  0  0  0  0
   -9.9391   -0.3800   -1.8421 H   0  0  0  0  0  0  0  0  0  0  0  0
   -4.7513    0.0168    1.0907 H   0  0  0  0  0  0  0  0  0  0  0  0
  1  2  1  0
  1 34  1  1
  1 35  1  0
  1 36  1  0
  2  3  1  0
  2 37  1  6
  2 38  1  0
  3  4  1  0
  6  3  1  6
  4  5  1  0
  4 39  1  1
  4 40  1  0
  5 41  1  1
  5 42  1  0
  5 43  1  0
  6  7  2  0
  6  8  2  0
  6  9  1  0
  9 33  2  0
  9 10  1  0
 10 11  2  0
 10 44  1  0
 11 12  1  0
 11 45  1  0
 12 13  1  0
 12 15  2  0
 13 14  1  0
 14 46  1  1
 14 47  1  0
 14 48  1  0
 15 16  1  0
 15 33  1  0
 16 17  1  0
 16 49  1  0
 17 18  2  0
 17 19  1  0
 19 20  1  0
 19 50  1  1
 19 51  1  0
 20 21  1  0
 20 27  1  0
 20 52  1  6
 21 26  2  0
 21 22  1  0
 22 23  2  0
 22 53  1  0
 23 24  1  0
 23 54  1  0
 24 25  2  0
 24 55  1  0
 25 26  1  0
 25 56  1  0
 26 57  1  0
 27 32  2  0
 27 28  1  0
 28 29  2  0
 28 58  1  0
 29 30  1  0
 29 59  1  0
 30 31  2  0
 30 60  1  0
 31 32  1  0
 31 61  1  0
 32 62  1  0
 33 63  1  0
M  END
$$$$
