ZINC000000145697
     RDKit          3D

 29 29  0  0  0  0  0  0  0  0999 V2000
   -0.0178    1.5019    0.0203 C   0  0  1  0  0  0  0  0  0  0  0  0
    0.0023   -0.0049    0.0203 C   0  0  0  0  0  0  0  0  0  0  0  0
    1.3174   -0.7409    0.0158 C   0  0  1  0  0  0  0  0  0  0  0  0
   -1.1406   -0.6854    0.0243 C   0  0  0  0  0  0  0  0  0  0  0  0
   -2.4239    0.0329    0.0287 C   0  0  0  0  0  0  0  0  0  0  0  0
   -2.4402    1.2490    0.0287 O   0  0  0  0  0  0  0  0  0  0  0  0
   -3.5820   -0.6565    0.0327 N   0  0  0  0  0  0  0  0  0  0  0  0
   -4.7994    0.0218    0.1536 C   0  0  0  0  0  0  0  0  0  0  0  0
   -4.8444    1.2667    0.7665 C   0  0  0  0  0  0  0  0  0  0  0  0
   -6.0482    1.9343    0.8839 C   0  0  0  0  0  0  0  0  0  0  0  0
   -6.0973    3.2857    1.5492 C   0  0  1  0  0  0  0  0  0  0  0  0
   -5.9038    4.2852    0.5896 F   0  0  0  0  0  0  0  0  0  0  0  0
   -7.3442    3.4600    2.1592 F   0  0  0  0  0  0  0  0  0  0  0  0
   -5.0896    3.3663    2.5163 F   0  0  0  0  0  0  0  0  0  0  0  0
   -7.2077    1.3647    0.3916 C   0  0  0  0  0  0  0  0  0  0  0  0
   -7.1675    0.1245   -0.2193 C   0  0  0  0  0  0  0  0  0  0  0  0
   -5.9661   -0.5465   -0.3449 C   0  0  0  0  0  0  0  0  0  0  0  0
   -5.9159   -2.1029   -1.1122 Cl  0  0  0  0  0  0  0  0  0  0  0  0
    1.0049    1.8790    0.0168 H   0  0  0  0  0  0  0  0  0  0  0  0
   -0.5395    1.8583   -0.8678 H   0  0  0  0  0  0  0  0  0  0  0  0
   -0.5334    1.8584    0.9121 H   0  0  0  0  0  0  0  0  0  0  0  0
    1.6380   -0.9183    1.0423 H   0  0  0  0  0  0  0  0  0  0  0  0
    1.1980   -1.6950   -0.4976 H   0  0  0  0  0  0  0  0  0  0  0  0
    2.0673   -0.1417   -0.5007 H   0  0  0  0  0  0  0  0  0  0  0  0
   -1.1262   -1.7653    0.0242 H   0  0  0  0  0  0  0  0  0  0  0  0
   -3.5713   -1.6231   -0.0482 H   0  0  0  0  0  0  0  0  0  0  0  0
   -3.9392    1.7126    1.1515 H   0  0  0  0  0  0  0  0  0  0  0  0
   -8.1472    1.8893    0.4845 H   0  0  0  0  0  0  0  0  0  0  0  0
   -8.0752   -0.3180   -0.6022 H   0  0  0  0  0  0  0  0  0  0  0  0
  1  2  1  0
  1 19  1  6
  1 20  1  0
  1 21  1  0
  2  3  1  0
  2  4  2  0
  3 22  1  1
  3 23  1  0
  3 24  1  0
  4  5  1  0
  4 25  1  0
  5  6  2  0
  5  7  1  0
  7  8  1  0
  7 26  1  0
  8 17  2  0
  8  9  1  0
  9 10  2  0
  9 27  1  0
 10 11  1  0
 10 15  1  0
 11 12  1  6
 11 13  1  0
 11 14  1  0
 15 16  2  0
 15 28  1  0
 16 17  1  0
 16 29  1  0
 17 18  1  0
M  END
$$$$
