ZINC000071144684
     RDKit          3D

 39 40  0  0  1  0  0  0  0  0999 V2000
   -0.0178    1.4648    0.0101 C   0  0  1  0  0  0  0  0  0  0  0  0
    0.0021   -0.0041    0.0020 N   0  0  1  0  0  0  0  0  0  0  0  0
    0.4901   -0.3383    0.8195 H   0  0  0  0  0  0  0  0  0  0  0  0
   -0.9445   -0.3533    0.0092 H   0  0  0  0  0  0  0  0  0  0  0  0
    0.6897   -0.4778   -1.2066 C   0  0  1  0  0  0  0  0  0  0  0  0
    0.7104   -2.0077   -1.2150 C   0  0  2  0  0  0  0  0  0  0  0  0
   -0.2966   -2.4105   -1.1064 H   0  0  0  0  0  0  0  0  0  0  0  0
    1.6514   -2.5572   -0.1105 C   0  0  1  0  0  0  0  0  0  0  0  0
    2.0787   -3.9297   -0.6719 C   0  0  1  0  0  0  0  0  0  0  0  0
    1.8879   -3.8840   -2.1289 N   0  0  0  0  0  0  0  0  0  0  0  0
    2.1829   -5.1288   -3.1805 S   0  0  1  0  0  0  0  0  0  0  0  0
    2.4069   -4.5354   -4.4521 O   0  0  0  0  0  0  0  0  0  0  0  0
    3.1264   -5.9782   -2.5422 O   0  0  0  0  0  0  0  0  0  0  0  0
    0.6921   -6.0576   -3.3206 C   0  0  0  0  0  0  0  0  0  0  0  0
    0.4494   -7.1095   -2.4571 C   0  0  0  0  0  0  0  0  0  0  0  0
   -0.7201   -7.8381   -2.5670 C   0  0  0  0  0  0  0  0  0  0  0  0
   -1.6472   -7.5147   -3.5401 C   0  0  0  0  0  0  0  0  0  0  0  0
   -2.9219   -8.3094   -3.6602 C   0  0  1  0  0  0  0  0  0  0  0  0
   -3.9102   -7.7298   -2.8573 F   0  0  0  0  0  0  0  0  0  0  0  0
   -3.3462   -8.3116   -4.9933 F   0  0  0  0  0  0  0  0  0  0  0  0
   -2.6929   -9.6244   -3.2415 F   0  0  0  0  0  0  0  0  0  0  0  0
   -1.4051   -6.4620   -4.4027 C   0  0  0  0  0  0  0  0  0  0  0  0
   -0.2373   -5.7309   -4.2903 C   0  0  0  0  0  0  0  0  0  0  0  0
    1.3886   -2.5467   -2.4992 C   0  0  1  0  0  0  0  0  0  0  0  0
    1.0047    1.8421    0.0024 H   0  0  0  0  0  0  0  0  0  0  0  0
   -0.5450    1.8259   -0.8730 H   0  0  0  0  0  0  0  0  0  0  0  0
   -0.5280    1.8163    0.9069 H   0  0  0  0  0  0  0  0  0  0  0  0
    0.1625   -0.1167   -2.0897 H   0  0  0  0  0  0  0  0  0  0  0  0
    1.7123   -0.1005   -1.2143 H   0  0  0  0  0  0  0  0  0  0  0  0
    2.5166   -1.9067    0.0177 H   0  0  0  0  0  0  0  0  0  0  0  0
    1.1139   -2.6757    0.8303 H   0  0  0  0  0  0  0  0  0  0  0  0
    3.1278   -4.1144   -0.4410 H   0  0  0  0  0  0  0  0  0  0  0  0
    1.4583   -4.7157   -0.2413 H   0  0  0  0  0  0  0  0  0  0  0  0
    1.1737   -7.3622   -1.6969 H   0  0  0  0  0  0  0  0  0  0  0  0
   -0.9094   -8.6604   -1.8928 H   0  0  0  0  0  0  0  0  0  0  0  0
   -2.1295   -6.2090   -5.1627 H   0  0  0  0  0  0  0  0  0  0  0  0
   -0.0481   -4.9084   -4.9642 H   0  0  0  0  0  0  0  0  0  0  0  0
    0.6631   -2.6235   -3.3090 H   0  0  0  0  0  0  0  0  0  0  0  0
    2.2163   -1.9000   -2.7903 H   0  0  0  0  0  0  0  0  0  0  0  0
  1  2  1  0
  1 25  1  6
  1 26  1  0
  1 27  1  0
  2  3  1  1
  2  4  1  0
  2  5  1  0
  5  6  1  0
  5 28  1  6
  5 29  1  0
  6  7  1  1
  6 24  1  0
  6  8  1  0
  8  9  1  0
  8 30  1  1
  8 31  1  0
  9 10  1  0
  9 32  1  6
  9 33  1  0
 11 10  1  1
 10 24  1  0
 11 12  2  0
 11 13  2  0
 11 14  1  0
 14 23  2  0
 14 15  1  0
 15 16  2  0
 15 34  1  0
 16 17  1  0
 16 35  1  0
 17 18  1  0
 17 22  2  0
 18 19  1  1
 18 20  1  0
 18 21  1  0
 22 23  1  0
 22 36  1  0
 23 37  1  0
 24 38  1  6
 24 39  1  0
M  CHG  1   2   1
M  END
$$$$
