ZINC000019930088
     RDKit          3D

 48 49  0  0  1  0  0  0  0  0999 V2000
   -0.0187    1.5258    0.0104 C   0  0  1  0  0  0  0  0  0  0  0  0
    0.0021   -0.0041    0.0020 C   0  0  1  0  0  0  0  0  0  0  0  0
   -1.3723   -0.5112    0.0124 N   0  0  0  0  0  0  0  0  0  0  0  0
   -2.1099   -0.6542   -1.2453 C   0  0  1  0  0  0  0  0  0  0  0  0
   -1.7778   -1.9829   -1.8740 C   0  0  0  0  0  0  0  0  0  0  0  0
   -1.0015   -2.7362   -1.3256 O   0  0  0  0  0  0  0  0  0  0  0  0
   -2.3435   -2.3340   -3.0459 N   0  0  0  0  0  0  0  0  0  0  0  0
   -2.0207   -3.6257   -3.6571 C   0  0  1  0  0  0  0  0  0  0  0  0
   -2.7910   -3.7751   -4.9706 C   0  0  1  0  0  0  0  0  0  0  0  0
   -2.5282   -2.9695   -5.6563 H   0  0  0  0  0  0  0  0  0  0  0  0
   -2.4904   -5.1509   -5.6168 C   0  0  1  0  0  0  0  0  0  0  0  0
   -3.7659   -5.3566   -6.4787 C   0  0  1  0  0  0  0  0  0  0  0  0
   -4.8571   -4.6908   -5.6132 C   0  0  1  0  0  0  0  0  0  0  0  0
   -4.2057   -3.7763   -4.7216 O   0  0  0  0  0  0  0  0  0  0  0  0
   -2.0922   -0.9227    1.4458 S   0  0  1  0  0  0  0  0  0  0  0  0
   -3.1196   -1.8512    1.1269 O   0  0  0  0  0  0  0  0  0  0  0  0
   -1.0393   -1.2108    2.3555 O   0  0  0  0  0  0  0  0  0  0  0  0
   -2.8978    0.5199    2.0580 C   0  0  0  0  0  0  0  0  0  0  0  0
   -2.2144    1.3946    2.8819 C   0  0  0  0  0  0  0  0  0  0  0  0
   -2.8434    2.5271    3.3632 C   0  0  0  0  0  0  0  0  0  0  0  0
   -4.1614    2.7862    3.0193 C   0  0  0  0  0  0  0  0  0  0  0  0
   -4.7819    3.8997    3.4912 O   0  0  0  0  0  0  0  0  0  0  0  0
   -4.0161    4.7599    4.3371 C   0  0  1  0  0  0  0  0  0  0  0  0
   -4.8462    1.9064    2.1916 C   0  0  0  0  0  0  0  0  0  0  0  0
   -6.4965    2.2268    1.7583 Cl  0  0  0  0  0  0  0  0  0  0  0  0
   -4.2107    0.7779    1.7087 C   0  0  0  0  0  0  0  0  0  0  0  0
    1.0039    1.9031    0.0027 H   0  0  0  0  0  0  0  0  0  0  0  0
   -0.5459    1.8868   -0.8726 H   0  0  0  0  0  0  0  0  0  0  0  0
   -0.5289    1.8773    0.9072 H   0  0  0  0  0  0  0  0  0  0  0  0
    0.5123   -0.3556   -0.8948 H   0  0  0  0  0  0  0  0  0  0  0  0
    0.5293   -0.3651    0.8851 H   0  0  0  0  0  0  0  0  0  0  0  0
   -3.1804   -0.6037   -1.0465 H   0  0  0  0  0  0  0  0  0  0  0  0
   -1.8283    0.1500   -1.9251 H   0  0  0  0  0  0  0  0  0  0  0  0
   -2.9644   -1.7315   -3.4845 H   0  0  0  0  0  0  0  0  0  0  0  0
   -0.9502   -3.6762   -3.8559 H   0  0  0  0  0  0  0  0  0  0  0  0
   -2.3023   -4.4299   -2.9773 H   0  0  0  0  0  0  0  0  0  0  0  0
   -1.5978   -5.1052   -6.2408 H   0  0  0  0  0  0  0  0  0  0  0  0
   -2.3985   -5.9291   -4.8592 H   0  0  0  0  0  0  0  0  0  0  0  0
   -3.6706   -4.8508   -7.4395 H   0  0  0  0  0  0  0  0  0  0  0  0
   -3.9739   -6.4177   -6.6166 H   0  0  0  0  0  0  0  0  0  0  0  0
   -5.5556   -4.1490   -6.2509 H   0  0  0  0  0  0  0  0  0  0  0  0
   -5.3899   -5.4504   -5.0410 H   0  0  0  0  0  0  0  0  0  0  0  0
   -1.1879    1.1925    3.1500 H   0  0  0  0  0  0  0  0  0  0  0  0
   -2.3087    3.2097    4.0071 H   0  0  0  0  0  0  0  0  0  0  0  0
   -4.6285    5.6082    4.6426 H   0  0  0  0  0  0  0  0  0  0  0  0
   -3.6935    4.2080    5.2199 H   0  0  0  0  0  0  0  0  0  0  0  0
   -3.1422    5.1195    3.7940 H   0  0  0  0  0  0  0  0  0  0  0  0
   -4.7424    0.0932    1.0646 H   0  0  0  0  0  0  0  0  0  0  0  0
  1  2  1  0
  1 27  1  6
  1 28  1  0
  1 29  1  0
  2  3  1  0
  2 30  1  6
  2 31  1  0
  3  4  1  0
 15  3  1  6
  4  5  1  0
  4 32  1  1
  4 33  1  0
  5  6  2  0
  5  7  1  0
  7  8  1  0
  7 34  1  0
  8  9  1  0
  8 35  1  6
  8 36  1  0
  9 10  1  6
  9 14  1  0
  9 11  1  0
 11 12  1  0
 11 37  1  6
 11 38  1  0
 12 13  1  0
 12 39  1  6
 12 40  1  0
 13 14  1  0
 13 41  1  6
 13 42  1  0
 15 16  2  0
 15 17  2  0
 15 18  1  0
 18 26  2  0
 18 19  1  0
 19 20  2  0
 19 43  1  0
 20 21  1  0
 20 44  1  0
 21 22  1  0
 21 24  2  0
 22 23  1  0
 23 45  1  1
 23 46  1  0
 23 47  1  0
 24 25  1  0
 24 26  1  0
 26 48  1  0
M  END
$$$$
