ZINC000070640074
     RDKit          3D

 34 35  0  0  1  0  0  0  0  0999 V2000
    0.0021   -0.0041    0.0020 O   0  0  0  0  0  0  0  0  0  0  0  0
   -0.0172    1.4168    0.0098 S   0  0  1  0  0  0  0  0  0  0  0  0
    1.1903    2.1659    0.0023 O   0  0  0  0  0  0  0  0  0  0  0  0
   -0.7587    1.8230   -1.4141 N   0  0  0  0  0  0  0  0  0  0  0  0
   -0.9388    3.2326   -1.7701 C   0  0  1  0  0  0  0  0  0  0  0  0
   -1.2919    3.3426   -3.2547 C   0  0  2  0  0  0  0  0  0  0  0  0
   -2.2156    2.7977   -3.4498 H   0  0  0  0  0  0  0  0  0  0  0  0
   -0.2352    2.7847   -4.0383 O   0  0  0  0  0  0  0  0  0  0  0  0
   -1.4772    4.7927   -3.6208 C   0  0  0  0  0  0  0  0  0  0  0  0
   -0.3829    5.5638   -3.9656 C   0  0  0  0  0  0  0  0  0  0  0  0
   -0.5529    6.8939   -4.3015 C   0  0  0  0  0  0  0  0  0  0  0  0
   -1.8172    7.4528   -4.2930 C   0  0  0  0  0  0  0  0  0  0  0  0
   -2.0024    8.9030   -4.6587 C   0  0  1  0  0  0  0  0  0  0  0  0
   -2.2181    9.0125   -6.0367 F   0  0  0  0  0  0  0  0  0  0  0  0
   -3.1058    9.4200   -3.9714 F   0  0  0  0  0  0  0  0  0  0  0  0
   -0.8552    9.6226   -4.3076 F   0  0  0  0  0  0  0  0  0  0  0  0
   -2.9116    6.6814   -3.9496 C   0  0  0  0  0  0  0  0  0  0  0  0
   -2.7421    5.3502   -3.6174 C   0  0  0  0  0  0  0  0  0  0  0  0
   -1.1394    2.0311    1.2958 C   0  0  1  0  0  0  0  0  0  0  0  0
   -1.8758    0.9934    2.1454 C   0  0  1  0  0  0  0  0  0  0  0  0
   -0.7326    1.8081    2.7538 C   0  0  1  0  0  0  0  0  0  0  0  0
   -1.0737    1.1276   -2.0125 H   0  0  0  0  0  0  0  0  0  0  0  0
   -1.7448    3.6582   -1.1723 H   0  0  0  0  0  0  0  0  0  0  0  0
   -0.0151    3.7775   -1.5750 H   0  0  0  0  0  0  0  0  0  0  0  0
    0.6187    3.2215   -3.9150 H   0  0  0  0  0  0  0  0  0  0  0  0
    0.6048    5.1271   -3.9722 H   0  0  0  0  0  0  0  0  0  0  0  0
    0.3022    7.4965   -4.5702 H   0  0  0  0  0  0  0  0  0  0  0  0
   -3.8994    7.1179   -3.9434 H   0  0  0  0  0  0  0  0  0  0  0  0
   -3.5972    4.7475   -3.3491 H   0  0  0  0  0  0  0  0  0  0  0  0
   -1.6688    2.9533    1.0564 H   0  0  0  0  0  0  0  0  0  0  0  0
   -2.8901    1.2328    2.4650 H   0  0  0  0  0  0  0  0  0  0  0  0
   -1.6860   -0.0584    1.9316 H   0  0  0  0  0  0  0  0  0  0  0  0
    0.2093    1.2923    2.9403 H   0  0  0  0  0  0  0  0  0  0  0  0
   -0.9947    2.5835    3.4737 H   0  0  0  0  0  0  0  0  0  0  0  0
  1  2  2  0
  2  3  2  0
  2  4  1  6
  2 19  1  0
  4  5  1  0
  4 22  1  0
  5  6  1  0
  5 23  1  1
  5 24  1  0
  6  7  1  1
  6  8  1  0
  6  9  1  0
  8 25  1  0
  9 18  2  0
  9 10  1  0
 10 11  2  0
 10 26  1  0
 11 12  1  0
 11 27  1  0
 12 13  1  0
 12 17  2  0
 13 14  1  6
 13 15  1  0
 13 16  1  0
 17 18  1  0
 17 28  1  0
 18 29  1  0
 19 21  1  0
 19 20  1  0
 19 30  1  1
 20 21  1  0
 20 31  1  1
 20 32  1  0
 21 33  1  6
 21 34  1  0
M  END
$$$$
