ZINC000001028337
     RDKit          3D

 41 42  0  0  0  0  0  0  0  0999 V2000
   -0.0187    1.5258    0.0104 C   0  0  1  0  0  0  0  0  0  0  0  0
    0.0021   -0.0041    0.0020 C   0  0  1  0  0  0  0  0  0  0  0  0
    0.6817   -0.4723   -1.1926 O   0  0  0  0  0  0  0  0  0  0  0  0
    0.7865   -1.8049   -1.3536 C   0  0  0  0  0  0  0  0  0  0  0  0
    0.3228   -2.5561   -0.5186 O   0  0  0  0  0  0  0  0  0  0  0  0
    1.4059   -2.3058   -2.4408 N   0  0  0  0  0  0  0  0  0  0  0  0
    1.9768   -1.4092   -3.4557 C   0  0  1  0  0  0  0  0  0  0  0  0
    3.4578   -1.7612   -3.6431 C   0  0  1  0  0  0  0  0  0  0  0  0
    3.5747   -3.2136   -3.8347 N   0  0  0  0  0  0  0  0  0  0  0  0
    4.3366   -3.8289   -5.1701 S   0  0  1  0  0  0  0  0  0  0  0  0
    3.8233   -5.1409   -5.3560 O   0  0  0  0  0  0  0  0  0  0  0  0
    4.2723   -2.8204   -6.1691 O   0  0  0  0  0  0  0  0  0  0  0  0
    6.0400   -4.0146   -4.7594 C   0  0  0  0  0  0  0  0  0  0  0  0
    6.9222   -2.9740   -4.9826 C   0  0  0  0  0  0  0  0  0  0  0  0
    8.2585   -3.1197   -4.6604 C   0  0  0  0  0  0  0  0  0  0  0  0
    8.7126   -4.3058   -4.1146 C   0  0  0  0  0  0  0  0  0  0  0  0
   10.1696   -4.4648   -3.7639 C   0  0  1  0  0  0  0  0  0  0  0  0
   10.3797   -4.0491   -2.4447 F   0  0  0  0  0  0  0  0  0  0  0  0
   10.5365   -5.8086   -3.8934 F   0  0  0  0  0  0  0  0  0  0  0  0
   10.9451   -3.6842   -4.6279 F   0  0  0  0  0  0  0  0  0  0  0  0
    7.8302   -5.3459   -3.8903 C   0  0  0  0  0  0  0  0  0  0  0  0
    6.4931   -5.1989   -4.2089 C   0  0  0  0  0  0  0  0  0  0  0  0
    3.0037   -4.1101   -2.8198 C   0  0  1  0  0  0  0  0  0  0  0  0
    1.5277   -3.7581   -2.6296 C   0  0  1  0  0  0  0  0  0  0  0  0
    1.0039    1.9031    0.0027 H   0  0  0  0  0  0  0  0  0  0  0  0
   -0.5459    1.8868   -0.8726 H   0  0  0  0  0  0  0  0  0  0  0  0
   -0.5289    1.8773    0.9072 H   0  0  0  0  0  0  0  0  0  0  0  0
    0.5293   -0.3651    0.8851 H   0  0  0  0  0  0  0  0  0  0  0  0
   -1.0205   -0.3814    0.0098 H   0  0  0  0  0  0  0  0  0  0  0  0
    1.4473   -1.5406   -4.3994 H   0  0  0  0  0  0  0  0  0  0  0  0
    1.8858   -0.3752   -3.1232 H   0  0  0  0  0  0  0  0  0  0  0  0
    3.8487   -1.2440   -4.5194 H   0  0  0  0  0  0  0  0  0  0  0  0
    4.0196   -1.4626   -2.7581 H   0  0  0  0  0  0  0  0  0  0  0  0
    6.5674   -2.0473   -5.4089 H   0  0  0  0  0  0  0  0  0  0  0  0
    8.9479   -2.3069   -4.8354 H   0  0  0  0  0  0  0  0  0  0  0  0
    8.1849   -6.2725   -3.4635 H   0  0  0  0  0  0  0  0  0  0  0  0
    5.8037   -6.0115   -4.0336 H   0  0  0  0  0  0  0  0  0  0  0  0
    3.0947   -5.1442   -3.1523 H   0  0  0  0  0  0  0  0  0  0  0  0
    3.5332   -3.9787   -1.8762 H   0  0  0  0  0  0  0  0  0  0  0  0
    1.1381   -4.2760   -1.7532 H   0  0  0  0  0  0  0  0  0  0  0  0
    0.9638   -4.0553   -3.5138 H   0  0  0  0  0  0  0  0  0  0  0  0
  1  2  1  0
  1 25  1  6
  1 26  1  0
  1 27  1  0
  2  3  1  0
  2 28  1  1
  2 29  1  0
  3  4  1  0
  4  5  2  0
  4  6  1  0
  6 24  1  0
  6  7  1  0
  7  8  1  0
  7 30  1  6
  7 31  1  0
  8  9  1  0
  8 32  1  6
  8 33  1  0
 10  9  1  1
  9 23  1  0
 10 11  2  0
 10 12  2  0
 10 13  1  0
 13 22  2  0
 13 14  1  0
 14 15  2  0
 14 34  1  0
 15 16  1  0
 15 35  1  0
 16 17  1  0
 16 21  2  0
 17 18  1  1
 17 19  1  0
 17 20  1  0
 21 22  1  0
 21 36  1  0
 22 37  1  0
 23 24  1  0
 23 38  1  6
 23 39  1  0
 24 40  1  1
 24 41  1  0
M  END
$$$$
