ZINC000408604493
     RDKit          3D

 59 61  0  0  1  0  0  0  0  0999 V2000
   -0.0187    1.5258    0.0104 C   0  0  1  0  0  0  0  0  0  0  0  0
    0.0021   -0.0041    0.0020 C   0  0  2  0  0  0  0  0  0  0  0  0
    0.5123   -0.3556   -0.8948 H   0  0  0  0  0  0  0  0  0  0  0  0
   -1.4333   -0.5336    0.0129 C   0  0  1  0  0  0  0  0  0  0  0  0
   -1.4157   -2.0577   -0.1212 C   0  0  1  0  0  0  0  0  0  0  0  0
   -2.8295   -2.5793   -0.1105 C   0  0  0  0  0  0  0  0  0  0  0  0
   -3.4324   -2.9175    1.0866 C   0  0  0  0  0  0  0  0  0  0  0  0
   -4.7292   -3.3959    1.0964 C   0  0  0  0  0  0  0  0  0  0  0  0
   -5.4233   -3.5358   -0.0908 C   0  0  0  0  0  0  0  0  0  0  0  0
   -4.8208   -3.1967   -1.2878 C   0  0  0  0  0  0  0  0  0  0  0  0
   -3.5254   -2.7142   -1.2973 C   0  0  0  0  0  0  0  0  0  0  0  0
    0.7106   -0.4894    1.1889 N   0  0  0  0  0  0  0  0  0  0  0  0
    2.0538   -0.5998    1.1737 C   0  0  0  0  0  0  0  0  0  0  0  0
    2.6758   -0.2974    0.1774 O   0  0  0  0  0  0  0  0  0  0  0  0
    2.7826   -1.0990    2.3946 C   0  0  1  0  0  0  0  0  0  0  0  0
    4.2226   -1.1273    2.1261 N   0  0  0  0  0  0  0  0  0  0  0  0
    5.0266    0.0829    2.3137 C   0  0  1  0  0  0  0  0  0  0  0  0
    5.4443    0.1897    3.7577 C   0  0  0  0  0  0  0  0  0  0  0  0
    4.6393    0.8566    4.6623 C   0  0  0  0  0  0  0  0  0  0  0  0
    5.0218    0.9548    5.9868 C   0  0  0  0  0  0  0  0  0  0  0  0
    6.2107    0.3856    6.4073 C   0  0  0  0  0  0  0  0  0  0  0  0
    6.6916    0.5081    8.0708 Cl  0  0  0  0  0  0  0  0  0  0  0  0
    7.0159   -0.2817    5.5015 C   0  0  0  0  0  0  0  0  0  0  0  0
    6.6295   -0.3841    4.1784 C   0  0  0  0  0  0  0  0  0  0  0  0
    4.9414   -2.5273    1.6107 S   0  0  1  0  0  0  0  0  0  0  0  0
    6.2767   -2.4948    2.0956 O   0  0  0  0  0  0  0  0  0  0  0  0
    4.0321   -3.5781    1.9076 O   0  0  0  0  0  0  0  0  0  0  0  0
    5.0478   -2.4428   -0.1461 C   0  0  0  0  0  0  0  0  0  0  0  0
    4.0119   -2.9234   -0.9251 C   0  0  0  0  0  0  0  0  0  0  0  0
    4.0953   -2.8572   -2.3033 C   0  0  0  0  0  0  0  0  0  0  0  0
    5.2144   -2.3099   -2.9025 C   0  0  0  0  0  0  0  0  0  0  0  0
    6.2499   -1.8285   -2.1235 C   0  0  0  0  0  0  0  0  0  0  0  0
    6.1646   -1.8908   -0.7451 C   0  0  0  0  0  0  0  0  0  0  0  0
    1.0039    1.9031    0.0027 H   0  0  0  0  0  0  0  0  0  0  0  0
   -0.5459    1.8868   -0.8726 H   0  0  0  0  0  0  0  0  0  0  0  0
   -0.5289    1.8773    0.9072 H   0  0  0  0  0  0  0  0  0  0  0  0
   -1.9156   -0.2570    0.9504 H   0  0  0  0  0  0  0  0  0  0  0  0
   -1.9862   -0.1019   -0.8214 H   0  0  0  0  0  0  0  0  0  0  0  0
   -0.9334   -2.3344   -1.0587 H   0  0  0  0  0  0  0  0  0  0  0  0
   -0.8628   -2.4894    0.7131 H   0  0  0  0  0  0  0  0  0  0  0  0
   -2.8901   -2.8082    2.0141 H   0  0  0  0  0  0  0  0  0  0  0  0
   -5.2000   -3.6608    2.0316 H   0  0  0  0  0  0  0  0  0  0  0  0
   -6.4363   -3.9103   -0.0832 H   0  0  0  0  0  0  0  0  0  0  0  0
   -5.3630   -3.3063   -2.2154 H   0  0  0  0  0  0  0  0  0  0  0  0
   -3.0546   -2.4493   -2.2324 H   0  0  0  0  0  0  0  0  0  0  0  0
    0.2131   -0.7312    1.9857 H   0  0  0  0  0  0  0  0  0  0  0  0
    2.5826   -0.4337    3.2345 H   0  0  0  0  0  0  0  0  0  0  0  0
    2.4385   -2.1044    2.6374 H   0  0  0  0  0  0  0  0  0  0  0  0
    5.9132    0.0316    1.6818 H   0  0  0  0  0  0  0  0  0  0  0  0
    4.4360    0.9574    2.0407 H   0  0  0  0  0  0  0  0  0  0  0  0
    3.7114    1.3012    4.3340 H   0  0  0  0  0  0  0  0  0  0  0  0
    4.3930    1.4761    6.6934 H   0  0  0  0  0  0  0  0  0  0  0  0
    7.9442   -0.7259    5.8290 H   0  0  0  0  0  0  0  0  0  0  0  0
    7.2579   -0.9053    3.4712 H   0  0  0  0  0  0  0  0  0  0  0  0
    3.1376   -3.3510   -0.4570 H   0  0  0  0  0  0  0  0  0  0  0  0
    3.2863   -3.2333   -2.9120 H   0  0  0  0  0  0  0  0  0  0  0  0
    5.2799   -2.2588   -3.9793 H   0  0  0  0  0  0  0  0  0  0  0  0
    7.1243   -1.4012   -2.5916 H   0  0  0  0  0  0  0  0  0  0  0  0
    6.9735   -1.5147   -0.1365 H   0  0  0  0  0  0  0  0  0  0  0  0
  1  2  1  0
  1 34  1  6
  1 35  1  0
  1 36  1  0
  2  3  1  6
  2  4  1  0
  2 12  1  0
  4  5  1  0
  4 37  1  1
  4 38  1  0
  5  6  1  0
  5 39  1  6
  5 40  1  0
  6 11  2  0
  6  7  1  0
  7  8  2  0
  7 41  1  0
  8  9  1  0
  8 42  1  0
  9 10  2  0
  9 43  1  0
 10 11  1  0
 10 44  1  0
 11 45  1  0
 12 13  1  0
 12 46  1  0
 13 14  2  0
 13 15  1  0
 15 16  1  0
 15 47  1  1
 15 48  1  0
 16 17  1  0
 25 16  1  1
 17 18  1  0
 17 49  1  6
 17 50  1  0
 18 24  2  0
 18 19  1  0
 19 20  2  0
 19 51  1  0
 20 21  1  0
 20 52  1  0
 21 22  1  0
 21 23  2  0
 23 24  1  0
 23 53  1  0
 24 54  1  0
 25 26  2  0
 25 27  2  0
 25 28  1  0
 28 33  2  0
 28 29  1  0
 29 30  2  0
 29 55  1  0
 30 31  1  0
 30 56  1  0
 31 32  2  0
 31 57  1  0
 32 33  1  0
 32 58  1  0
 33 59  1  0
M  END
$$$$
