ZINC000408607914
     RDKit          3D

 52 52  0  0  1  0  0  0  0  0999 V2000
   -0.0187    1.5258    0.0104 C   0  0  1  0  0  0  0  0  0  0  0  0
    0.0021   -0.0041    0.0020 C   0  0  1  0  0  0  0  0  0  0  0  0
   -1.4333   -0.5336    0.0129 C   0  0  1  0  0  0  0  0  0  0  0  0
   -1.4126   -2.0635    0.0045 C   0  0  1  0  0  0  0  0  0  0  0  0
   -0.8102   -2.4233    0.8386 H   0  0  0  0  0  0  0  0  0  0  0  0
   -2.8413   -2.5937    0.1410 C   0  0  1  0  0  0  0  0  0  0  0  0
   -0.8342   -2.5371   -1.2555 N   0  0  0  0  0  0  0  0  0  0  0  0
   -0.2517   -3.7510   -1.3153 C   0  0  0  0  0  0  0  0  0  0  0  0
   -0.2062   -4.4512   -0.3261 O   0  0  0  0  0  0  0  0  0  0  0  0
    0.3432   -4.2382   -2.6114 C   0  0  1  0  0  0  0  0  0  0  0  0
    0.8967   -5.5418   -2.4212 O   0  0  0  0  0  0  0  0  0  0  0  0
    1.4768   -6.1293   -3.5006 C   0  0  0  0  0  0  0  0  0  0  0  0
    1.5178   -5.4624   -4.7164 C   0  0  0  0  0  0  0  0  0  0  0  0
    2.1085   -6.0615   -5.8120 C   0  0  0  0  0  0  0  0  0  0  0  0
    2.6582   -7.3251   -5.6978 C   0  0  0  0  0  0  0  0  0  0  0  0
    3.4104   -8.0868   -7.0973 S   0  0  1  0  0  0  0  0  0  0  0  0
    3.3693   -9.4876   -6.8622 O   0  0  0  0  0  0  0  0  0  0  0  0
    2.8371   -7.4740   -8.2441 O   0  0  0  0  0  0  0  0  0  0  0  0
    5.0099   -7.6578   -7.0883 N   0  0  0  0  0  0  0  0  0  0  0  0
    5.9875   -8.4901   -6.3828 C   0  0  1  0  0  0  0  0  0  0  0  0
    6.6317   -9.4668   -7.3687 C   0  0  1  0  0  0  0  0  0  0  0  0
    5.4472   -6.4460   -7.7858 C   0  0  1  0  0  0  0  0  0  0  0  0
    5.5059   -5.2809   -6.7958 C   0  0  1  0  0  0  0  0  0  0  0  0
    2.6191   -7.9917   -4.4871 C   0  0  0  0  0  0  0  0  0  0  0  0
    2.0342   -7.3947   -3.3871 C   0  0  0  0  0  0  0  0  0  0  0  0
    1.0039    1.9031    0.0027 H   0  0  0  0  0  0  0  0  0  0  0  0
   -0.5459    1.8868   -0.8726 H   0  0  0  0  0  0  0  0  0  0  0  0
   -0.5289    1.8773    0.9072 H   0  0  0  0  0  0  0  0  0  0  0  0
    0.5123   -0.3556   -0.8948 H   0  0  0  0  0  0  0  0  0  0  0  0
    0.5293   -0.3651    0.8851 H   0  0  0  0  0  0  0  0  0  0  0  0
   -1.9435   -0.1821    0.9097 H   0  0  0  0  0  0  0  0  0  0  0  0
   -1.9605   -0.1726   -0.8702 H   0  0  0  0  0  0  0  0  0  0  0  0
   -2.8265   -3.6836    0.1350 H   0  0  0  0  0  0  0  0  0  0  0  0
   -3.2715   -2.2413    1.0784 H   0  0  0  0  0  0  0  0  0  0  0  0
   -3.4436   -2.2339   -0.6932 H   0  0  0  0  0  0  0  0  0  0  0  0
   -0.8706   -1.9771   -2.0466 H   0  0  0  0  0  0  0  0  0  0  0  0
   -0.4340   -4.2812   -3.3744 H   0  0  0  0  0  0  0  0  0  0  0  0
    1.1286   -3.5531   -2.9309 H   0  0  0  0  0  0  0  0  0  0  0  0
    1.0879   -4.4757   -4.8063 H   0  0  0  0  0  0  0  0  0  0  0  0
    2.1406   -5.5427   -6.7587 H   0  0  0  0  0  0  0  0  0  0  0  0
    6.7575   -7.8546   -5.9454 H   0  0  0  0  0  0  0  0  0  0  0  0
    5.4860   -9.0492   -5.5929 H   0  0  0  0  0  0  0  0  0  0  0  0
    7.3591  -10.0860   -6.8439 H   0  0  0  0  0  0  0  0  0  0  0  0
    5.8618  -10.1023   -7.8061 H   0  0  0  0  0  0  0  0  0  0  0  0
    7.1333   -8.9077   -8.1587 H   0  0  0  0  0  0  0  0  0  0  0  0
    6.4365   -6.6098   -8.2132 H   0  0  0  0  0  0  0  0  0  0  0  0
    4.7416   -6.2107   -8.5825 H   0  0  0  0  0  0  0  0  0  0  0  0
    4.5167   -5.1171   -6.3684 H   0  0  0  0  0  0  0  0  0  0  0  0
    6.2115   -5.5162   -5.9991 H   0  0  0  0  0  0  0  0  0  0  0  0
    5.8313   -4.3792   -7.3148 H   0  0  0  0  0  0  0  0  0  0  0  0
    3.0495   -8.9784   -4.4003 H   0  0  0  0  0  0  0  0  0  0  0  0
    2.0039   -7.9158   -2.4417 H   0  0  0  0  0  0  0  0  0  0  0  0
  1  2  1  0
  1 26  1  6
  1 27  1  0
  1 28  1  0
  2  3  1  0
  2 29  1  6
  2 30  1  0
  3  4  1  0
  3 31  1  1
  3 32  1  0
  4  5  1  1
  4  6  1  0
  4  7  1  0
  6 33  1  1
  6 34  1  0
  6 35  1  0
  7  8  1  0
  7 36  1  0
  8  9  2  0
  8 10  1  0
 10 11  1  0
 10 37  1  6
 10 38  1  0
 11 12  1  0
 12 25  2  0
 12 13  1  0
 13 14  2  0
 13 39  1  0
 14 15  1  0
 14 40  1  0
 15 16  1  0
 15 24  2  0
 16 17  2  0
 16 18  2  0
 16 19  1  1
 19 20  1  0
 19 22  1  0
 20 21  1  0
 20 41  1  1
 20 42  1  0
 21 43  1  1
 21 44  1  0
 21 45  1  0
 22 23  1  0
 22 46  1  6
 22 47  1  0
 23 48  1  1
 23 49  1  0
 23 50  1  0
 24 25  1  0
 24 51  1  0
 25 52  1  0
M  END
$$$$
