ZINC000000464362
     RDKit          3D

 39 40  0  0  1  0  0  0  0  0999 V2000
   -0.0187    1.5258    0.0104 C   0  0  1  0  0  0  0  0  0  0  0  0
    0.0021   -0.0041    0.0020 C   0  0  2  0  0  0  0  0  0  0  0  0
    0.5122   -0.3561   -0.8946 H   0  0  0  0  0  0  0  0  0  0  0  0
   -1.4334   -0.5345    0.0145 C   0  0  1  0  0  0  0  0  0  0  0  0
   -1.4142   -2.0642   -0.0270 C   0  0  1  0  0  0  0  0  0  0  0  0
   -2.4371   -2.4406   -0.0417 H   0  0  0  0  0  0  0  0  0  0  0  0
   -0.6799   -2.5317   -1.2853 C   0  0  1  0  0  0  0  0  0  0  0  0
   -0.6916   -2.5957    1.2148 C   0  0  1  0  0  0  0  0  0  0  0  0
    0.6392   -1.9773    1.2884 N   0  0  0  0  0  0  0  0  0  0  0  0
    1.9987   -2.9138    1.4182 S   0  0  1  0  0  0  0  0  0  0  0  0
    2.9973   -2.0921    2.0072 O   0  0  0  0  0  0  0  0  0  0  0  0
    1.5814   -4.1517    1.9775 O   0  0  0  0  0  0  0  0  0  0  0  0
    2.5469   -3.2671   -0.2187 C   0  0  0  0  0  0  0  0  0  0  0  0
    2.0795   -4.3889   -0.8770 C   0  0  0  0  0  0  0  0  0  0  0  0
    2.5096   -4.6662   -2.1613 C   0  0  0  0  0  0  0  0  0  0  0  0
    3.4067   -3.8212   -2.7872 C   0  0  0  0  0  0  0  0  0  0  0  0
    3.8735   -2.6986   -2.1291 C   0  0  0  0  0  0  0  0  0  0  0  0
    4.8520   -1.7775   -2.8113 C   0  0  1  0  0  0  0  0  0  0  0  0
    5.1349   -2.2639   -4.0922 F   0  0  0  0  0  0  0  0  0  0  0  0
    4.2961   -0.4976   -2.9107 F   0  0  0  0  0  0  0  0  0  0  0  0
    6.0333   -1.7162   -2.0643 F   0  0  0  0  0  0  0  0  0  0  0  0
    3.4402   -2.4191   -0.8467 C   0  0  0  0  0  0  0  0  0  0  0  0
    0.7415   -0.5122    1.2437 C   0  0  1  0  0  0  0  0  0  0  0  0
    1.0039    1.9031    0.0027 H   0  0  0  0  0  0  0  0  0  0  0  0
   -0.5459    1.8868   -0.8726 H   0  0  0  0  0  0  0  0  0  0  0  0
   -0.5289    1.8773    0.9072 H   0  0  0  0  0  0  0  0  0  0  0  0
   -1.9355   -0.2021    0.9231 H   0  0  0  0  0  0  0  0  0  0  0  0
   -1.9686   -0.1542   -0.8556 H   0  0  0  0  0  0  0  0  0  0  0  0
    0.3432   -2.1560   -1.2696 H   0  0  0  0  0  0  0  0  0  0  0  0
   -0.6665   -3.6212   -1.3144 H   0  0  0  0  0  0  0  0  0  0  0  0
   -1.1933   -2.1509   -2.1682 H   0  0  0  0  0  0  0  0  0  0  0  0
   -1.2630   -2.3406    2.1072 H   0  0  0  0  0  0  0  0  0  0  0  0
   -0.5879   -3.6783    1.1418 H   0  0  0  0  0  0  0  0  0  0  0  0
    1.3786   -5.0492   -0.3879 H   0  0  0  0  0  0  0  0  0  0  0  0
    2.1449   -5.5431   -2.6755 H   0  0  0  0  0  0  0  0  0  0  0  0
    3.7432   -4.0381   -3.7902 H   0  0  0  0  0  0  0  0  0  0  0  0
    3.8049   -1.5421   -0.3326 H   0  0  0  0  0  0  0  0  0  0  0  0
    1.7904   -0.2207    1.1903 H   0  0  0  0  0  0  0  0  0  0  0  0
    0.2870   -0.0867    2.1384 H   0  0  0  0  0  0  0  0  0  0  0  0
  1  2  1  0
  1 24  1  6
  1 25  1  0
  1 26  1  0
  2  3  1  6
  2 23  1  0
  2  4  1  0
  4  5  1  0
  4 27  1  1
  4 28  1  0
  5  6  1  6
  5  7  1  0
  5  8  1  0
  7 29  1  1
  7 30  1  0
  7 31  1  0
  8  9  1  0
  8 32  1  1
  8 33  1  0
 10  9  1  6
  9 23  1  0
 10 11  2  0
 10 12  2  0
 10 13  1  0
 13 22  2  0
 13 14  1  0
 14 15  2  0
 14 34  1  0
 15 16  1  0
 15 35  1  0
 16 17  2  0
 16 36  1  0
 17 18  1  0
 17 22  1  0
 18 19  1  6
 18 20  1  0
 18 21  1  0
 22 37  1  0
 23 38  1  6
 23 39  1  0
M  END
$$$$
