ZINC000013042302
     RDKit          3D

 70 72  0  0  0  0  0  0  0  0999 V2000
   -0.5448    0.1184    0.2944 C   0  0  1  0  0  0  0  0  0  0  0  0
    0.1328   -1.2337    0.5259 C   0  0  1  0  0  0  0  0  0  0  0  0
    0.8315   -1.6681   -0.7368 C   0  0  0  0  0  0  0  0  0  0  0  0
    0.1535   -2.4229   -1.6760 C   0  0  0  0  0  0  0  0  0  0  0  0
    0.7917   -2.8223   -2.8343 C   0  0  0  0  0  0  0  0  0  0  0  0
    2.1140   -2.4651   -3.0548 C   0  0  0  0  0  0  0  0  0  0  0  0
    2.7439   -2.8564   -4.1936 O   0  0  0  0  0  0  0  0  0  0  0  0
    4.1052   -2.4523   -4.3537 C   0  0  1  0  0  0  0  0  0  0  0  0
    4.6333   -2.9741   -5.6651 C   0  0  0  0  0  0  0  0  0  0  0  0
    3.9145   -3.6279   -6.3913 O   0  0  0  0  0  0  0  0  0  0  0  0
    5.9041   -2.7145   -6.0311 N   0  0  0  0  0  0  0  0  0  0  0  0
    6.4234   -3.2747   -7.2062 C   0  0  0  0  0  0  0  0  0  0  0  0
    5.6045   -3.4581   -8.3097 C   0  0  0  0  0  0  0  0  0  0  0  0
    6.1188   -4.0110   -9.4681 C   0  0  0  0  0  0  0  0  0  0  0  0
    5.0756   -4.2428  -10.8690 S   0  0  1  0  0  0  0  0  0  0  0  0
    5.6692   -5.2747  -11.6449 O   0  0  0  0  0  0  0  0  0  0  0  0
    3.7460   -4.3110  -10.3723 O   0  0  0  0  0  0  0  0  0  0  0  0
    5.1643   -2.8628  -11.7800 N   0  0  0  0  0  0  0  0  0  0  0  0
    6.1798   -2.7415  -12.8290 C   0  0  1  0  0  0  0  0  0  0  0  0
    5.5762   -3.1535  -14.1732 C   0  0  1  0  0  0  0  0  0  0  0  0
    4.2273   -1.7631  -11.5370 C   0  0  1  0  0  0  0  0  0  0  0  0
    4.8699   -0.7448  -10.5931 C   0  0  1  0  0  0  0  0  0  0  0  0
    7.4490   -4.3819   -9.5305 C   0  0  0  0  0  0  0  0  0  0  0  0
    8.2730   -4.2031   -8.4346 C   0  0  0  0  0  0  0  0  0  0  0  0
    7.7670   -3.6441   -7.2708 C   0  0  0  0  0  0  0  0  0  0  0  0
    8.5988   -3.4618   -6.1609 N   0  0  0  0  0  0  0  0  0  0  0  0
   10.0055   -3.7015   -6.5119 C   0  0  1  0  0  0  0  0  0  0  0  0
   10.8882   -3.4152   -5.2948 C   0  0  1  0  0  0  0  0  0  0  0  0
   10.4729   -4.2759   -4.1784 N   0  0  0  0  0  0  0  0  0  0  0  0
   11.3463   -4.0845   -3.0129 C   0  0  1  0  0  0  0  0  0  0  0  0
    9.0662   -4.0361   -3.8273 C   0  0  1  0  0  0  0  0  0  0  0  0
    8.1835   -4.3224   -5.0445 C   0  0  1  0  0  0  0  0  0  0  0  0
    2.7920   -1.7073   -2.1110 C   0  0  0  0  0  0  0  0  0  0  0  0
    2.1478   -1.3063   -0.9566 C   0  0  0  0  0  0  0  0  0  0  0  0
    0.2065    0.8594    0.0216 H   0  0  0  0  0  0  0  0  0  0  0  0
   -1.2736    0.0264   -0.5109 H   0  0  0  0  0  0  0  0  0  0  0  0
   -1.0502    0.4326    1.2076 H   0  0  0  0  0  0  0  0  0  0  0  0
    0.8616   -1.1417    1.3312 H   0  0  0  0  0  0  0  0  0  0  0  0
   -0.6185   -1.9747    0.7987 H   0  0  0  0  0  0  0  0  0  0  0  0
   -0.8759   -2.7007   -1.5039 H   0  0  0  0  0  0  0  0  0  0  0  0
    0.2619   -3.4125   -3.5673 H   0  0  0  0  0  0  0  0  0  0  0  0
    4.1645   -1.3639   -4.3454 H   0  0  0  0  0  0  0  0  0  0  0  0
    4.7024   -2.8549   -3.5355 H   0  0  0  0  0  0  0  0  0  0  0  0
    6.4594   -2.1399   -5.4812 H   0  0  0  0  0  0  0  0  0  0  0  0
    4.5648   -3.1694   -8.2645 H   0  0  0  0  0  0  0  0  0  0  0  0
    6.5220   -1.7082  -12.8857 H   0  0  0  0  0  0  0  0  0  0  0  0
    7.0232   -3.3912  -12.5950 H   0  0  0  0  0  0  0  0  0  0  0  0
    4.7329   -2.5038  -14.4071 H   0  0  0  0  0  0  0  0  0  0  0  0
    6.3318   -3.0633  -14.9536 H   0  0  0  0  0  0  0  0  0  0  0  0
    5.2341   -4.1868  -14.1164 H   0  0  0  0  0  0  0  0  0  0  0  0
    3.9827   -1.2786  -12.4822 H   0  0  0  0  0  0  0  0  0  0  0  0
    3.3170   -2.1550  -11.0833 H   0  0  0  0  0  0  0  0  0  0  0  0
    5.7802   -0.3528  -11.0468 H   0  0  0  0  0  0  0  0  0  0  0  0
    4.1727    0.0734  -10.4123 H   0  0  0  0  0  0  0  0  0  0  0  0
    5.1145   -1.2293   -9.6479 H   0  0  0  0  0  0  0  0  0  0  0  0
    7.8458   -4.8130  -10.4378 H   0  0  0  0  0  0  0  0  0  0  0  0
    9.3117   -4.4944   -8.4867 H   0  0  0  0  0  0  0  0  0  0  0  0
   10.1323   -4.7403   -6.8167 H   0  0  0  0  0  0  0  0  0  0  0  0
   10.2928   -3.0438   -7.3323 H   0  0  0  0  0  0  0  0  0  0  0  0
   11.9293   -3.6203   -5.5443 H   0  0  0  0  0  0  0  0  0  0  0  0
   10.7822   -2.3694   -5.0066 H   0  0  0  0  0  0  0  0  0  0  0  0
   11.2978   -3.0447   -2.6894 H   0  0  0  0  0  0  0  0  0  0  0  0
   11.0167   -4.7332   -2.2014 H   0  0  0  0  0  0  0  0  0  0  0  0
   12.3726   -4.3334   -3.2831 H   0  0  0  0  0  0  0  0  0  0  0  0
    8.7789   -4.6938   -3.0070 H   0  0  0  0  0  0  0  0  0  0  0  0
    8.9394   -2.9973   -3.5225 H   0  0  0  0  0  0  0  0  0  0  0  0
    7.1424   -4.1174   -4.7950 H   0  0  0  0  0  0  0  0  0  0  0  0
    8.2895   -5.3683   -5.3326 H   0  0  0  0  0  0  0  0  0  0  0  0
    3.8215   -1.4282   -2.2802 H   0  0  0  0  0  0  0  0  0  0  0  0
    2.6750   -0.7160   -0.2217 H   0  0  0  0  0  0  0  0  0  0  0  0
  1  2  1  0
  1 35  1  6
  1 36  1  0
  1 37  1  0
  2  3  1  0
  2 38  1  1
  2 39  1  0
  3 34  2  0
  3  4  1  0
  4  5  2  0
  4 40  1  0
  5  6  1  0
  5 41  1  0
  6  7  1  0
  6 33  2  0
  7  8  1  0
  8  9  1  0
  8 42  1  6
  8 43  1  0
  9 10  2  0
  9 11  1  0
 11 12  1  0
 11 44  1  0
 12 25  2  0
 12 13  1  0
 13 14  2  0
 13 45  1  0
 14 15  1  0
 14 23  1  0
 15 16  2  0
 15 17  2  0
 15 18  1  6
 18 19  1  0
 18 21  1  0
 19 20  1  0
 19 46  1  6
 19 47  1  0
 20 48  1  6
 20 49  1  0
 20 50  1  0
 21 22  1  0
 21 51  1  6
 21 52  1  0
 22 53  1  6
 22 54  1  0
 22 55  1  0
 23 24  2  0
 23 56  1  0
 24 25  1  0
 24 57  1  0
 25 26  1  0
 26 32  1  0
 26 27  1  0
 27 28  1  0
 27 58  1  6
 27 59  1  0
 28 29  1  0
 28 60  1  6
 28 61  1  0
 29 30  1  0
 29 31  1  0
 30 62  1  1
 30 63  1  0
 30 64  1  0
 31 32  1  0
 31 65  1  1
 31 66  1  0
 32 67  1  1
 32 68  1  0
 33 34  1  0
 33 69  1  0
 34 70  1  0
M  END
$$$$
