ZINC000016576320
     RDKit          3D

 62 64  0  0  1  0  0  0  0  0999 V2000
   -0.0187    1.5258    0.0104 C   0  0  1  0  0  0  0  0  0  0  0  0
    0.0021   -0.0041    0.0020 C   0  0  1  0  0  0  0  0  0  0  0  0
    0.5123   -0.3556   -0.8948 H   0  0  0  0  0  0  0  0  0  0  0  0
    0.7421   -0.5109    1.2415 C   0  0  1  0  0  0  0  0  0  0  0  0
    0.8719   -2.0337    1.1708 C   0  0  1  0  0  0  0  0  0  0  0  0
    1.6008   -2.5330    2.3917 C   0  0  0  0  0  0  0  0  0  0  0  0
    2.9789   -2.6409    2.3781 C   0  0  0  0  0  0  0  0  0  0  0  0
    3.6475   -3.0988    3.4980 C   0  0  0  0  0  0  0  0  0  0  0  0
    2.9380   -3.4484    4.6317 C   0  0  0  0  0  0  0  0  0  0  0  0
    1.5600   -3.3396    4.6457 C   0  0  0  0  0  0  0  0  0  0  0  0
    0.8918   -2.8776    3.5272 C   0  0  0  0  0  0  0  0  0  0  0  0
   -1.3723   -0.5112    0.0124 N   0  0  0  0  0  0  0  0  0  0  0  0
   -2.0508   -0.6427   -1.1446 C   0  0  0  0  0  0  0  0  0  0  0  0
   -1.5236   -0.3413   -2.1944 O   0  0  0  0  0  0  0  0  0  0  0  0
   -3.4646   -1.1643   -1.1339 C   0  0  1  0  0  0  0  0  0  0  0  0
   -3.9776   -1.2130   -2.5053 N   0  0  0  0  0  0  0  0  0  0  0  0
   -3.7030   -2.3787   -3.3491 C   0  0  1  0  0  0  0  0  0  0  0  0
   -2.1910   -2.5442   -3.5139 C   0  0  1  0  0  0  0  0  0  0  0  0
   -1.9042   -3.7617   -4.3952 C   0  0  1  0  0  0  0  0  0  0  0  0
   -2.4858   -5.0151   -3.7383 C   0  0  1  0  0  0  0  0  0  0  0  0
   -3.9979   -4.8496   -3.5735 C   0  0  1  0  0  0  0  0  0  0  0  0
   -4.2847   -3.6322   -2.6922 C   0  0  1  0  0  0  0  0  0  0  0  0
   -4.8677    0.0496   -3.1018 S   0  0  1  0  0  0  0  0  0  0  0  0
   -5.6571   -0.4796   -4.1582 O   0  0  0  0  0  0  0  0  0  0  0  0
   -5.4223    0.7166   -1.9762 O   0  0  0  0  0  0  0  0  0  0  0  0
   -3.7377    1.1801   -3.8431 C   0  0  0  0  0  0  0  0  0  0  0  0
   -3.1777    2.1931   -3.0874 C   0  0  0  0  0  0  0  0  0  0  0  0
   -2.2912    3.0801   -3.6691 C   0  0  0  0  0  0  0  0  0  0  0  0
   -1.9643    2.9537   -5.0063 C   0  0  0  0  0  0  0  0  0  0  0  0
   -2.5237    1.9402   -5.7617 C   0  0  0  0  0  0  0  0  0  0  0  0
   -3.4069    1.0506   -5.1791 C   0  0  0  0  0  0  0  0  0  0  0  0
    1.0039    1.9031    0.0027 H   0  0  0  0  0  0  0  0  0  0  0  0
   -0.5459    1.8868   -0.8726 H   0  0  0  0  0  0  0  0  0  0  0  0
   -0.5289    1.8773    0.9072 H   0  0  0  0  0  0  0  0  0  0  0  0
    1.7350   -0.0630    1.2804 H   0  0  0  0  0  0  0  0  0  0  0  0
    0.1838   -0.2350    2.1361 H   0  0  0  0  0  0  0  0  0  0  0  0
   -0.1210   -2.4817    1.1320 H   0  0  0  0  0  0  0  0  0  0  0  0
    1.4302   -2.3096    0.2763 H   0  0  0  0  0  0  0  0  0  0  0  0
    3.5331   -2.3677    1.4923 H   0  0  0  0  0  0  0  0  0  0  0  0
    4.7241   -3.1838    3.4870 H   0  0  0  0  0  0  0  0  0  0  0  0
    3.4603   -3.8068    5.5064 H   0  0  0  0  0  0  0  0  0  0  0  0
    1.0057   -3.6130    5.5313 H   0  0  0  0  0  0  0  0  0  0  0  0
   -0.1848   -2.7926    3.5382 H   0  0  0  0  0  0  0  0  0  0  0  0
   -1.7940   -0.7522    0.8520 H   0  0  0  0  0  0  0  0  0  0  0  0
   -3.4790   -2.1662   -0.7048 H   0  0  0  0  0  0  0  0  0  0  0  0
   -4.0912   -0.5035   -0.5349 H   0  0  0  0  0  0  0  0  0  0  0  0
   -4.1616   -2.2352   -4.3275 H   0  0  0  0  0  0  0  0  0  0  0  0
   -1.7766   -1.6513   -3.9819 H   0  0  0  0  0  0  0  0  0  0  0  0
   -1.7324   -2.6878   -2.5356 H   0  0  0  0  0  0  0  0  0  0  0  0
   -2.3628   -3.6181   -5.3735 H   0  0  0  0  0  0  0  0  0  0  0  0
   -0.8270   -3.8796   -4.5126 H   0  0  0  0  0  0  0  0  0  0  0  0
   -2.2816   -5.8824   -4.3661 H   0  0  0  0  0  0  0  0  0  0  0  0
   -2.0273   -5.1587   -2.7599 H   0  0  0  0  0  0  0  0  0  0  0  0
   -4.4565   -4.7060   -4.5518 H   0  0  0  0  0  0  0  0  0  0  0  0
   -4.4123   -5.7426   -3.1055 H   0  0  0  0  0  0  0  0  0  0  0  0
   -3.8261   -3.7757   -1.7139 H   0  0  0  0  0  0  0  0  0  0  0  0
   -5.3619   -3.5143   -2.5748 H   0  0  0  0  0  0  0  0  0  0  0  0
   -3.4330    2.2918   -2.0427 H   0  0  0  0  0  0  0  0  0  0  0  0
   -1.8541    3.8719   -3.0788 H   0  0  0  0  0  0  0  0  0  0  0  0
   -1.2723    3.6471   -5.4609 H   0  0  0  0  0  0  0  0  0  0  0  0
   -2.2686    1.8417   -6.8066 H   0  0  0  0  0  0  0  0  0  0  0  0
   -3.8440    0.2588   -5.7693 H   0  0  0  0  0  0  0  0  0  0  0  0
  1  2  1  0
  1 32  1  6
  1 33  1  0
  1 34  1  0
  2  3  1  6
  2  4  1  0
  2 12  1  0
  4  5  1  0
  4 35  1  1
  4 36  1  0
  5  6  1  0
  5 37  1  6
  5 38  1  0
  6 11  2  0
  6  7  1  0
  7  8  2  0
  7 39  1  0
  8  9  1  0
  8 40  1  0
  9 10  2  0
  9 41  1  0
 10 11  1  0
 10 42  1  0
 11 43  1  0
 12 13  1  0
 12 44  1  0
 13 14  2  0
 13 15  1  0
 15 16  1  0
 15 45  1  1
 15 46  1  0
 16 17  1  0
 23 16  1  1
 17 22  1  0
 17 18  1  0
 17 47  1  6
 18 19  1  0
 18 48  1  6
 18 49  1  0
 19 20  1  0
 19 50  1  6
 19 51  1  0
 20 21  1  0
 20 52  1  6
 20 53  1  0
 21 22  1  0
 21 54  1  6
 21 55  1  0
 22 56  1  1
 22 57  1  0
 23 24  2  0
 23 25  2  0
 23 26  1  0
 26 31  2  0
 26 27  1  0
 27 28  2  0
 27 58  1  0
 28 29  1  0
 28 59  1  0
 29 30  2  0
 29 60  1  0
 30 31  1  0
 30 61  1  0
 31 62  1  0
M  END
$$$$
