ZINC000408614163
     RDKit          3D

 59 61  0  0  1  0  0  0  0  0999 V2000
   -0.0187    1.5258    0.0104 C   0  0  1  0  0  0  0  0  0  0  0  0
    0.0021   -0.0041    0.0020 C   0  0  2  0  0  0  0  0  0  0  0  0
    0.5123   -0.3556   -0.8948 H   0  0  0  0  0  0  0  0  0  0  0  0
   -1.4333   -0.5336    0.0129 C   0  0  1  0  0  0  0  0  0  0  0  0
   -1.4157   -2.0577   -0.1212 C   0  0  1  0  0  0  0  0  0  0  0  0
   -2.8295   -2.5793   -0.1105 C   0  0  0  0  0  0  0  0  0  0  0  0
   -3.4324   -2.9175    1.0866 C   0  0  0  0  0  0  0  0  0  0  0  0
   -4.7292   -3.3959    1.0964 C   0  0  0  0  0  0  0  0  0  0  0  0
   -5.4233   -3.5358   -0.0908 C   0  0  0  0  0  0  0  0  0  0  0  0
   -4.8208   -3.1967   -1.2878 C   0  0  0  0  0  0  0  0  0  0  0  0
   -3.5254   -2.7142   -1.2973 C   0  0  0  0  0  0  0  0  0  0  0  0
    0.7106   -0.4894    1.1889 N   0  0  0  0  0  0  0  0  0  0  0  0
    2.0538   -0.5998    1.1737 C   0  0  0  0  0  0  0  0  0  0  0  0
    2.6758   -0.2974    0.1774 O   0  0  0  0  0  0  0  0  0  0  0  0
    2.7826   -1.0990    2.3946 C   0  0  1  0  0  0  0  0  0  0  0  0
    4.2226   -1.1273    2.1261 N   0  0  0  0  0  0  0  0  0  0  0  0
    5.0266    0.0829    2.3137 C   0  0  1  0  0  0  0  0  0  0  0  0
    5.4443    0.1897    3.7577 C   0  0  0  0  0  0  0  0  0  0  0  0
    4.6395    0.8565    4.6625 C   0  0  0  0  0  0  0  0  0  0  0  0
    5.0227    0.9544    5.9871 C   0  0  0  0  0  0  0  0  0  0  0  0
    6.2104    0.3852    6.4070 C   0  0  0  0  0  0  0  0  0  0  0  0
    7.0147   -0.2824    5.5023 C   0  0  0  0  0  0  0  0  0  0  0  0
    6.6294   -0.3840    4.1786 C   0  0  0  0  0  0  0  0  0  0  0  0
    4.9414   -2.5273    1.6107 S   0  0  1  0  0  0  0  0  0  0  0  0
    6.3143   -2.4267    1.9631 O   0  0  0  0  0  0  0  0  0  0  0  0
    4.1040   -3.5909    2.0427 O   0  0  0  0  0  0  0  0  0  0  0  0
    4.8785   -2.5282   -0.1502 C   0  0  0  0  0  0  0  0  0  0  0  0
    3.7921   -3.0813   -0.8022 C   0  0  0  0  0  0  0  0  0  0  0  0
    3.7416   -3.0826   -2.1832 C   0  0  0  0  0  0  0  0  0  0  0  0
    4.7794   -2.5293   -2.9139 C   0  0  0  0  0  0  0  0  0  0  0  0
    4.7310   -2.5297   -4.2640 F   0  0  0  0  0  0  0  0  0  0  0  0
    5.8668   -1.9753   -2.2598 C   0  0  0  0  0  0  0  0  0  0  0  0
    5.9128   -1.9708   -0.8786 C   0  0  0  0  0  0  0  0  0  0  0  0
    1.0039    1.9031    0.0027 H   0  0  0  0  0  0  0  0  0  0  0  0
   -0.5459    1.8868   -0.8726 H   0  0  0  0  0  0  0  0  0  0  0  0
   -0.5289    1.8773    0.9072 H   0  0  0  0  0  0  0  0  0  0  0  0
   -1.9156   -0.2570    0.9504 H   0  0  0  0  0  0  0  0  0  0  0  0
   -1.9862   -0.1019   -0.8214 H   0  0  0  0  0  0  0  0  0  0  0  0
   -0.9334   -2.3344   -1.0587 H   0  0  0  0  0  0  0  0  0  0  0  0
   -0.8628   -2.4894    0.7131 H   0  0  0  0  0  0  0  0  0  0  0  0
   -2.8901   -2.8082    2.0141 H   0  0  0  0  0  0  0  0  0  0  0  0
   -5.2000   -3.6608    2.0316 H   0  0  0  0  0  0  0  0  0  0  0  0
   -6.4363   -3.9103   -0.0832 H   0  0  0  0  0  0  0  0  0  0  0  0
   -5.3630   -3.3063   -2.2154 H   0  0  0  0  0  0  0  0  0  0  0  0
   -3.0546   -2.4493   -2.2324 H   0  0  0  0  0  0  0  0  0  0  0  0
    0.2131   -0.7312    1.9857 H   0  0  0  0  0  0  0  0  0  0  0  0
    2.5826   -0.4337    3.2345 H   0  0  0  0  0  0  0  0  0  0  0  0
    2.4385   -2.1044    2.6374 H   0  0  0  0  0  0  0  0  0  0  0  0
    5.9132    0.0316    1.6818 H   0  0  0  0  0  0  0  0  0  0  0  0
    4.4360    0.9574    2.0407 H   0  0  0  0  0  0  0  0  0  0  0  0
    3.7116    1.3012    4.3345 H   0  0  0  0  0  0  0  0  0  0  0  0
    4.3943    1.4760    6.6939 H   0  0  0  0  0  0  0  0  0  0  0  0
    6.5101    0.4623    7.4417 H   0  0  0  0  0  0  0  0  0  0  0  0
    7.9428   -0.7268    5.8303 H   0  0  0  0  0  0  0  0  0  0  0  0
    7.2578   -0.9055    3.4719 H   0  0  0  0  0  0  0  0  0  0  0  0
    2.9827   -3.5128   -0.2320 H   0  0  0  0  0  0  0  0  0  0  0  0
    2.8932   -3.5154   -2.6924 H   0  0  0  0  0  0  0  0  0  0  0  0
    6.6770   -1.5437   -2.8287 H   0  0  0  0  0  0  0  0  0  0  0  0
    6.7607   -1.5384   -0.3681 H   0  0  0  0  0  0  0  0  0  0  0  0
  1  2  1  0
  1 34  1  6
  1 35  1  0
  1 36  1  0
  2  3  1  6
  2  4  1  0
  2 12  1  0
  4  5  1  0
  4 37  1  1
  4 38  1  0
  5  6  1  0
  5 39  1  6
  5 40  1  0
  6 11  2  0
  6  7  1  0
  7  8  2  0
  7 41  1  0
  8  9  1  0
  8 42  1  0
  9 10  2  0
  9 43  1  0
 10 11  1  0
 10 44  1  0
 11 45  1  0
 12 13  1  0
 12 46  1  0
 13 14  2  0
 13 15  1  0
 15 16  1  0
 15 47  1  1
 15 48  1  0
 16 17  1  0
 24 16  1  1
 17 18  1  0
 17 49  1  6
 17 50  1  0
 18 23  2  0
 18 19  1  0
 19 20  2  0
 19 51  1  0
 20 21  1  0
 20 52  1  0
 21 22  2  0
 21 53  1  0
 22 23  1  0
 22 54  1  0
 23 55  1  0
 24 25  2  0
 24 26  2  0
 24 27  1  0
 27 33  2  0
 27 28  1  0
 28 29  2  0
 28 56  1  0
 29 30  1  0
 29 57  1  0
 30 31  1  0
 30 32  2  0
 32 33  1  0
 32 58  1  0
 33 59  1  0
M  END
$$$$
