ZINC000024685909
     RDKit          3D

 40 41  0  0  1  0  0  0  0  0999 V2000
    1.0322    0.7831    0.4409 C   0  0  1  0  0  0  0  0  0  0  0  0
    1.1405   -0.6523    0.1687 N   0  0  0  0  0  0  0  0  0  0  0  0
    0.5262   -1.1823   -0.9075 C   0  0  0  0  0  0  0  0  0  0  0  0
   -0.1163   -0.4709   -1.6506 O   0  0  0  0  0  0  0  0  0  0  0  0
    0.6376   -2.6588   -1.1876 C   0  0  1  0  0  0  0  0  0  0  0  0
    1.2583   -3.1295   -0.4251 H   0  0  0  0  0  0  0  0  0  0  0  0
   -0.7579   -3.2905   -1.1756 C   0  0  1  0  0  0  0  0  0  0  0  0
   -0.6528   -4.7581   -1.5967 C   0  0  1  0  0  0  0  0  0  0  0  0
   -0.0961   -4.8437   -3.0197 C   0  0  1  0  0  0  0  0  0  0  0  0
    1.3070   -4.2296   -3.0525 C   0  0  1  0  0  0  0  0  0  0  0  0
    1.2418   -2.8650   -2.5109 N   0  0  0  0  0  0  0  0  0  0  0  0
    1.8324   -1.5838   -3.3782 S   0  0  1  0  0  0  0  0  0  0  0  0
    2.1364   -0.5662   -2.4342 O   0  0  0  0  0  0  0  0  0  0  0  0
    2.7911   -2.1182   -4.2808 O   0  0  0  0  0  0  0  0  0  0  0  0
    0.5091   -0.9678   -4.3651 C   0  0  0  0  0  0  0  0  0  0  0  0
    0.0825   -1.6789   -5.4708 C   0  0  0  0  0  0  0  0  0  0  0  0
   -0.9558   -1.1956   -6.2452 C   0  0  0  0  0  0  0  0  0  0  0  0
   -1.5675   -0.0014   -5.9134 C   0  0  0  0  0  0  0  0  0  0  0  0
   -1.1414    0.7096   -4.8069 C   0  0  0  0  0  0  0  0  0  0  0  0
   -1.8080    2.0118   -4.4454 C   0  0  1  0  0  0  0  0  0  0  0  0
   -2.8206    2.2897   -5.3698 F   0  0  0  0  0  0  0  0  0  0  0  0
   -2.3607    1.9129   -3.1640 F   0  0  0  0  0  0  0  0  0  0  0  0
   -0.8616    3.0419   -4.4667 F   0  0  0  0  0  0  0  0  0  0  0  0
   -0.1062    0.2242   -4.0302 C   0  0  0  0  0  0  0  0  0  0  0  0
    1.4419    1.3442   -0.3990 H   0  0  0  0  0  0  0  0  0  0  0  0
   -0.0159    1.0487    0.5786 H   0  0  0  0  0  0  0  0  0  0  0  0
    1.5901    1.0244    1.3457 H   0  0  0  0  0  0  0  0  0  0  0  0
    1.6544   -1.2212    0.7629 H   0  0  0  0  0  0  0  0  0  0  0  0
   -1.1764   -3.2294   -0.1710 H   0  0  0  0  0  0  0  0  0  0  0  0
   -1.4046   -2.7575   -1.8726 H   0  0  0  0  0  0  0  0  0  0  0  0
    0.0135   -5.2850   -0.9138 H   0  0  0  0  0  0  0  0  0  0  0  0
   -1.6412   -5.2166   -1.5653 H   0  0  0  0  0  0  0  0  0  0  0  0
   -0.0434   -5.8880   -3.3276 H   0  0  0  0  0  0  0  0  0  0  0  0
   -0.7489   -4.2960   -3.6993 H   0  0  0  0  0  0  0  0  0  0  0  0
    1.9830   -4.8301   -2.4439 H   0  0  0  0  0  0  0  0  0  0  0  0
    1.6681   -4.1980   -4.0805 H   0  0  0  0  0  0  0  0  0  0  0  0
    0.5605   -2.6121   -5.7301 H   0  0  0  0  0  0  0  0  0  0  0  0
   -1.2887   -1.7509   -7.1096 H   0  0  0  0  0  0  0  0  0  0  0  0
   -2.3781    0.3766   -6.5187 H   0  0  0  0  0  0  0  0  0  0  0  0
    0.2267    0.7795   -3.1658 H   0  0  0  0  0  0  0  0  0  0  0  0
  1  2  1  0
  1 25  1  6
  1 26  1  0
  1 27  1  0
  2  3  1  0
  2 28  1  0
  3  4  2  0
  3  5  1  0
  5  6  1  1
  5 11  1  0
  5  7  1  0
  7  8  1  0
  7 29  1  1
  7 30  1  0
  8  9  1  0
  8 31  1  1
  8 32  1  0
  9 10  1  0
  9 33  1  6
  9 34  1  0
 10 11  1  0
 10 35  1  1
 10 36  1  0
 12 11  1  1
 12 13  2  0
 12 14  2  0
 12 15  1  0
 15 24  2  0
 15 16  1  0
 16 17  2  0
 16 37  1  0
 17 18  1  0
 17 38  1  0
 18 19  2  0
 18 39  1  0
 19 20  1  0
 19 24  1  0
 20 21  1  6
 20 22  1  0
 20 23  1  0
 24 40  1  0
M  END
$$$$
