ZINC000012850923
     RDKit          3D

 57 60  0  0  1  0  0  0  0  0999 V2000
   -1.7838   -1.5231    5.5453 C   0  0  1  0  0  0  0  0  0  0  0  0
   -1.6172   -0.0333    5.6994 C   0  0  0  0  0  0  0  0  0  0  0  0
   -2.0623    0.7043    6.6752 N   0  0  0  0  0  0  0  0  0  0  0  0
   -1.7714    1.8680    6.5223 O   0  0  0  0  0  0  0  0  0  0  0  0
   -1.0756    2.0575    5.3924 C   0  0  0  0  0  0  0  0  0  0  0  0
   -0.5422    3.3666    4.8700 C   0  0  1  0  0  0  0  0  0  0  0  0
   -0.9412    0.8392    4.8159 C   0  0  0  0  0  0  0  0  0  0  0  0
   -0.1228    0.4365    3.3083 S   0  0  1  0  0  0  0  0  0  0  0  0
   -0.7835   -0.7081    2.7863 O   0  0  0  0  0  0  0  0  0  0  0  0
    0.0107    1.6534    2.5868 O   0  0  0  0  0  0  0  0  0  0  0  0
    1.4124   -0.0469    3.6980 N   0  0  0  0  0  0  0  0  0  0  0  0
    1.8277   -1.4291    3.9986 C   0  0  1  0  0  0  0  0  0  0  0  0
    3.3436   -1.4656    3.6815 C   0  0  1  0  0  0  0  0  0  0  0  0
    3.7954   -0.0599    4.1580 C   0  0  1  0  0  0  0  0  0  0  0  0
    2.5883    0.8303    3.7951 C   0  0  1  0  0  0  0  0  0  0  0  0
    2.4270    1.5728    4.5766 H   0  0  0  0  0  0  0  0  0  0  0  0
    2.8368    1.5188    2.4778 C   0  0  0  0  0  0  0  0  0  0  0  0
    2.4297    1.0234    1.4484 O   0  0  0  0  0  0  0  0  0  0  0  0
    3.5116    2.6849    2.4437 N   0  0  0  0  0  0  0  0  0  0  0  0
    4.0161    3.2937    3.6825 C   0  0  1  0  0  0  0  0  0  0  0  0
    5.5244    3.5291    3.5340 C   0  0  1  0  0  0  0  0  0  0  0  0
    5.7692    4.2144    2.2572 N   0  0  0  0  0  0  0  0  0  0  0  0
    6.4660    5.4168    2.2219 C   0  0  0  0  0  0  0  0  0  0  0  0
    7.1229    5.8665    3.3625 C   0  0  0  0  0  0  0  0  0  0  0  0
    7.8128    7.0645    3.3132 C   0  0  0  0  0  0  0  0  0  0  0  0
    7.8226    7.7750    2.1204 C   0  0  0  0  0  0  0  0  0  0  0  0
    8.5615    9.0845    2.0205 C   0  0  1  0  0  0  0  0  0  0  0  0
    9.8793    8.8467    1.6154 F   0  0  0  0  0  0  0  0  0  0  0  0
    7.9272    9.9077    1.0839 F   0  0  0  0  0  0  0  0  0  0  0  0
    8.5642    9.7150    3.2694 F   0  0  0  0  0  0  0  0  0  0  0  0
    7.1487    7.2693    1.0266 C   0  0  0  0  0  0  0  0  0  0  0  0
    6.5030    6.1211    1.1011 N   0  0  0  0  0  0  0  0  0  0  0  0
    5.2647    3.6057    1.0184 C   0  0  1  0  0  0  0  0  0  0  0  0
    3.7613    3.3675    1.1663 C   0  0  1  0  0  0  0  0  0  0  0  0
   -0.9057   -2.0302    5.9451 H   0  0  0  0  0  0  0  0  0  0  0  0
   -2.6703   -1.8479    6.0900 H   0  0  0  0  0  0  0  0  0  0  0  0
   -1.8959   -1.7689    4.4893 H   0  0  0  0  0  0  0  0  0  0  0  0
   -0.8081    4.1681    5.5591 H   0  0  0  0  0  0  0  0  0  0  0  0
    0.5427    3.3078    4.7824 H   0  0  0  0  0  0  0  0  0  0  0  0
   -0.9753    3.5706    3.8908 H   0  0  0  0  0  0  0  0  0  0  0  0
    1.6545   -1.6570    5.0503 H   0  0  0  0  0  0  0  0  0  0  0  0
    1.2902   -2.1333    3.3635 H   0  0  0  0  0  0  0  0  0  0  0  0
    3.8429   -2.2501    4.2502 H   0  0  0  0  0  0  0  0  0  0  0  0
    3.5162   -1.5900    2.6125 H   0  0  0  0  0  0  0  0  0  0  0  0
    3.9727   -0.0558    5.2335 H   0  0  0  0  0  0  0  0  0  0  0  0
    4.6856    0.2626    3.6181 H   0  0  0  0  0  0  0  0  0  0  0  0
    3.5126    4.2451    3.8540 H   0  0  0  0  0  0  0  0  0  0  0  0
    3.8314    2.6228    4.5214 H   0  0  0  0  0  0  0  0  0  0  0  0
    5.8805    4.1495    4.3564 H   0  0  0  0  0  0  0  0  0  0  0  0
    6.0464    2.5722    3.5416 H   0  0  0  0  0  0  0  0  0  0  0  0
    7.0943    5.2884    4.2743 H   0  0  0  0  0  0  0  0  0  0  0  0
    8.3319    7.4390    4.1831 H   0  0  0  0  0  0  0  0  0  0  0  0
    7.1537    7.8187    0.0968 H   0  0  0  0  0  0  0  0  0  0  0  0
    5.4494    4.2766    0.1795 H   0  0  0  0  0  0  0  0  0  0  0  0
    5.7683    2.6543    0.8468 H   0  0  0  0  0  0  0  0  0  0  0  0
    3.4065    2.7471    0.3433 H   0  0  0  0  0  0  0  0  0  0  0  0
    3.2371    4.3231    1.1597 H   0  0  0  0  0  0  0  0  0  0  0  0
  1  2  1  0
  1 35  1  1
  1 36  1  0
  1 37  1  0
  2  7  1  0
  2  3  2  0
  3  4  1  0
  4  5  1  0
  5  6  1  0
  5  7  2  0
  6 38  1  1
  6 39  1  0
  6 40  1  0
  7  8  1  0
  8  9  2  0
  8 10  2  0
  8 11  1  1
 11 15  1  0
 11 12  1  0
 12 13  1  0
 12 41  1  1
 12 42  1  0
 13 14  1  0
 13 43  1  1
 13 44  1  0
 14 15  1  0
 14 45  1  1
 14 46  1  0
 15 16  1  1
 15 17  1  0
 17 18  2  0
 17 19  1  0
 19 34  1  0
 19 20  1  0
 20 21  1  0
 20 47  1  1
 20 48  1  0
 21 22  1  0
 21 49  1  1
 21 50  1  0
 22 23  1  0
 22 33  1  0
 23 32  2  0
 23 24  1  0
 24 25  2  0
 24 51  1  0
 25 26  1  0
 25 52  1  0
 26 27  1  0
 26 31  2  0
 27 28  1  6
 27 29  1  0
 27 30  1  0
 31 32  1  0
 31 53  1  0
 33 34  1  0
 33 54  1  6
 33 55  1  0
 34 56  1  6
 34 57  1  0
M  END
$$$$
