ZINC000028208121
     RDKit          3D

 51 52  0  0  1  0  0  0  0  0999 V2000
   -0.0187    1.5258    0.0104 C   0  0  1  0  0  0  0  0  0  0  0  0
    0.0021   -0.0041    0.0020 C   0  0  1  0  0  0  0  0  0  0  0  0
   -1.3723   -0.5112    0.0124 N   0  0  0  0  0  0  0  0  0  0  0  0
   -2.1099   -0.6542   -1.2453 C   0  0  1  0  0  0  0  0  0  0  0  0
   -1.7727   -2.0031   -1.8836 C   0  0  1  0  0  0  0  0  0  0  0  0
   -2.0922   -0.9227    1.4458 S   0  0  1  0  0  0  0  0  0  0  0  0
   -3.1196   -1.8512    1.1269 O   0  0  0  0  0  0  0  0  0  0  0  0
   -1.0393   -1.2108    2.3555 O   0  0  0  0  0  0  0  0  0  0  0  0
   -2.8978    0.5199    2.0580 C   0  0  0  0  0  0  0  0  0  0  0  0
   -2.2144    1.3946    2.8819 C   0  0  0  0  0  0  0  0  0  0  0  0
   -2.8434    2.5271    3.3632 C   0  0  0  0  0  0  0  0  0  0  0  0
   -4.1614    2.7862    3.0193 C   0  0  0  0  0  0  0  0  0  0  0  0
   -4.7819    3.8997    3.4912 O   0  0  0  0  0  0  0  0  0  0  0  0
   -4.0161    4.7599    4.3371 C   0  0  1  0  0  0  0  0  0  0  0  0
   -4.8628    5.9328    4.7595 C   0  0  0  0  0  0  0  0  0  0  0  0
   -6.0092    6.0232    4.3741 O   0  0  0  0  0  0  0  0  0  0  0  0
   -4.3461    6.8813    5.5656 N   0  0  0  0  0  0  0  0  0  0  0  0
   -5.1691    8.0215    5.9762 C   0  0  1  0  0  0  0  0  0  0  0  0
   -4.3492    8.9425    6.8819 C   0  0  2  0  0  0  0  0  0  0  0  0
   -3.9390    8.3720    7.7152 H   0  0  0  0  0  0  0  0  0  0  0  0
   -5.2428   10.0820    7.4170 C   0  0  1  0  0  0  0  0  0  0  0  0
   -4.2847   11.3033    7.3674 C   0  0  1  0  0  0  0  0  0  0  0  0
   -3.4473   10.9691    6.1073 C   0  0  1  0  0  0  0  0  0  0  0  0
   -3.2853    9.5402    6.1319 O   0  0  0  0  0  0  0  0  0  0  0  0
   -4.8462    1.9064    2.1916 C   0  0  0  0  0  0  0  0  0  0  0  0
   -6.4965    2.2268    1.7583 Cl  0  0  0  0  0  0  0  0  0  0  0  0
   -4.2107    0.7779    1.7087 C   0  0  0  0  0  0  0  0  0  0  0  0
    1.0039    1.9031    0.0027 H   0  0  0  0  0  0  0  0  0  0  0  0
   -0.5459    1.8868   -0.8726 H   0  0  0  0  0  0  0  0  0  0  0  0
   -0.5289    1.8773    0.9072 H   0  0  0  0  0  0  0  0  0  0  0  0
    0.5123   -0.3556   -0.8948 H   0  0  0  0  0  0  0  0  0  0  0  0
    0.5293   -0.3651    0.8851 H   0  0  0  0  0  0  0  0  0  0  0  0
   -3.1804   -0.6037   -1.0465 H   0  0  0  0  0  0  0  0  0  0  0  0
   -1.8283    0.1500   -1.9251 H   0  0  0  0  0  0  0  0  0  0  0  0
   -0.7022   -2.0536   -2.0825 H   0  0  0  0  0  0  0  0  0  0  0  0
   -2.0544   -2.8073   -1.2038 H   0  0  0  0  0  0  0  0  0  0  0  0
   -2.3215   -2.1096   -2.8194 H   0  0  0  0  0  0  0  0  0  0  0  0
   -1.1879    1.1925    3.1500 H   0  0  0  0  0  0  0  0  0  0  0  0
   -2.3087    3.2097    4.0071 H   0  0  0  0  0  0  0  0  0  0  0  0
   -3.6935    4.2080    5.2199 H   0  0  0  0  0  0  0  0  0  0  0  0
   -3.1422    5.1195    3.7940 H   0  0  0  0  0  0  0  0  0  0  0  0
   -3.4292    6.8090    5.8738 H   0  0  0  0  0  0  0  0  0  0  0  0
   -5.4918    8.5734    5.0934 H   0  0  0  0  0  0  0  0  0  0  0  0
   -6.0431    7.6619    6.5194 H   0  0  0  0  0  0  0  0  0  0  0  0
   -6.1037   10.2377    6.7668 H   0  0  0  0  0  0  0  0  0  0  0  0
   -5.5596    9.8788    8.4399 H   0  0  0  0  0  0  0  0  0  0  0  0
   -4.8391   12.2325    7.2356 H   0  0  0  0  0  0  0  0  0  0  0  0
   -3.6561   11.3458    8.2569 H   0  0  0  0  0  0  0  0  0  0  0  0
   -3.9802   11.2747    5.2069 H   0  0  0  0  0  0  0  0  0  0  0  0
   -2.4754   11.4601    6.1577 H   0  0  0  0  0  0  0  0  0  0  0  0
   -4.7424    0.0932    1.0646 H   0  0  0  0  0  0  0  0  0  0  0  0
  1  2  1  0
  1 28  1  6
  1 29  1  0
  1 30  1  0
  2  3  1  0
  2 31  1  6
  2 32  1  0
  3  4  1  0
  6  3  1  6
  4  5  1  0
  4 33  1  1
  4 34  1  0
  5 35  1  6
  5 36  1  0
  5 37  1  0
  6  7  2  0
  6  8  2  0
  6  9  1  0
  9 27  2  0
  9 10  1  0
 10 11  2  0
 10 38  1  0
 11 12  1  0
 11 39  1  0
 12 13  1  0
 12 25  2  0
 13 14  1  0
 14 15  1  0
 14 40  1  1
 14 41  1  0
 15 16  2  0
 15 17  1  0
 17 18  1  0
 17 42  1  0
 18 19  1  0
 18 43  1  6
 18 44  1  0
 19 20  1  1
 19 24  1  0
 19 21  1  0
 21 22  1  0
 21 45  1  6
 21 46  1  0
 22 23  1  0
 22 47  1  6
 22 48  1  0
 23 24  1  0
 23 49  1  6
 23 50  1  0
 25 26  1  0
 25 27  1  0
 27 51  1  0
M  END
$$$$
