ZINC000651783070
     RDKit          3D

 41 43  0  0  0  0  0  0  0  0999 V2000
    0.0021   -0.0041    0.0020 O   0  0  0  0  0  0  0  0  0  0  0  0
   -0.0172    1.4168    0.0098 S   0  0  1  0  0  0  0  0  0  0  0  0
    1.1617    2.2101    0.0028 O   0  0  0  0  0  0  0  0  0  0  0  0
   -0.9567    1.9094   -1.3970 C   0  0  0  0  0  0  0  0  0  0  0  0
   -1.8846    1.0444   -1.9457 C   0  0  0  0  0  0  0  0  0  0  0  0
   -2.6218    1.4309   -3.0496 C   0  0  0  0  0  0  0  0  0  0  0  0
   -2.4313    2.6825   -3.6042 C   0  0  0  0  0  0  0  0  0  0  0  0
   -1.5038    3.5481   -3.0548 C   0  0  0  0  0  0  0  0  0  0  0  0
   -1.2957    4.9126   -3.6597 C   0  0  1  0  0  0  0  0  0  0  0  0
   -2.1479    5.0707   -4.7579 F   0  0  0  0  0  0  0  0  0  0  0  0
   -1.5791    5.8944   -2.7043 F   0  0  0  0  0  0  0  0  0  0  0  0
    0.0331    5.0393   -4.0785 F   0  0  0  0  0  0  0  0  0  0  0  0
   -0.7698    3.1633   -1.9486 C   0  0  0  0  0  0  0  0  0  0  0  0
   -0.8748    1.8654    1.3536 N   0  0  0  0  0  0  0  0  0  0  0  0
   -0.6802    3.1905    1.9578 C   0  0  1  0  0  0  0  0  0  0  0  0
   -2.0421    3.8813    2.0802 C   0  0  1  0  0  0  0  0  0  0  0  0
   -3.0026    2.9735    2.8519 C   0  0  1  0  0  0  0  0  0  0  0  0
   -4.3536    3.6747    3.0061 C   0  0  1  0  0  0  0  0  0  0  0  0
   -4.2970    5.0940    3.1626 O   0  0  0  0  0  0  0  0  0  0  0  0
   -5.5423    3.0953    2.2366 C   0  0  1  0  0  0  0  0  0  0  0  0
   -5.4574    2.9249    3.7547 C   0  0  1  0  0  0  0  0  0  0  0  0
   -3.1933    1.6620    2.0865 C   0  0  1  0  0  0  0  0  0  0  0  0
   -1.8490    0.9483    1.9606 C   0  0  1  0  0  0  0  0  0  0  0  0
   -2.0335    0.0664   -1.5124 H   0  0  0  0  0  0  0  0  0  0  0  0
   -3.3463    0.7547   -3.4789 H   0  0  0  0  0  0  0  0  0  0  0  0
   -3.0066    2.9841   -4.4670 H   0  0  0  0  0  0  0  0  0  0  0  0
   -0.0453    3.8395   -1.5194 H   0  0  0  0  0  0  0  0  0  0  0  0
   -0.2367    3.0793    2.9473 H   0  0  0  0  0  0  0  0  0  0  0  0
   -0.0232    3.7875    1.3255 H   0  0  0  0  0  0  0  0  0  0  0  0
   -1.9249    4.8244    2.6141 H   0  0  0  0  0  0  0  0  0  0  0  0
   -2.4433    4.0734    1.0852 H   0  0  0  0  0  0  0  0  0  0  0  0
   -2.5888    2.7615    3.8377 H   0  0  0  0  0  0  0  0  0  0  0  0
   -5.1628    5.5140    3.2581 H   0  0  0  0  0  0  0  0  0  0  0  0
   -6.2814    3.7966    1.8494 H   0  0  0  0  0  0  0  0  0  0  0  0
   -5.3618    2.2144    1.6204 H   0  0  0  0  0  0  0  0  0  0  0  0
   -5.2211    1.9320    4.1373 H   0  0  0  0  0  0  0  0  0  0  0  0
   -6.1406    3.5143    4.3662 H   0  0  0  0  0  0  0  0  0  0  0  0
   -3.8956    1.0254    2.6248 H   0  0  0  0  0  0  0  0  0  0  0  0
   -3.5837    1.8749    1.0914 H   0  0  0  0  0  0  0  0  0  0  0  0
   -1.9618    0.0648    1.3323 H   0  0  0  0  0  0  0  0  0  0  0  0
   -1.4977    0.6536    2.9494 H   0  0  0  0  0  0  0  0  0  0  0  0
  1  2  2  0
  2  3  2  0
  2  4  1  0
  2 14  1  1
  4 13  2  0
  4  5  1  0
  5  6  2  0
  5 24  1  0
  6  7  1  0
  6 25  1  0
  7  8  2  0
  7 26  1  0
  8  9  1  0
  8 13  1  0
  9 10  1  6
  9 11  1  0
  9 12  1  0
 13 27  1  0
 14 23  1  0
 14 15  1  0
 15 16  1  0
 15 28  1  1
 15 29  1  0
 16 17  1  0
 16 30  1  1
 16 31  1  0
 17 18  1  0
 17 22  1  0
 17 32  1  1
 18 21  1  0
 18 19  1  1
 18 20  1  0
 19 33  1  0
 20 21  1  0
 20 34  1  1
 20 35  1  0
 21 36  1  6
 21 37  1  0
 22 23  1  0
 22 38  1  1
 22 39  1  0
 23 40  1  6
 23 41  1  0
M  END
$$$$
