ZINC000409020012
     RDKit          3D

 67 69  0  0  0  0  0  0  0  0999 V2000
   -0.0173    1.4248    0.0099 C   0  0  1  0  0  0  0  0  0  0  0  0
    0.0021   -0.0041    0.0020 O   0  0  0  0  0  0  0  0  0  0  0  0
    0.6062   -0.6075   -1.0564 C   0  0  0  0  0  0  0  0  0  0  0  0
    1.1727    0.1587   -2.0618 C   0  0  0  0  0  0  0  0  0  0  0  0
    1.7870   -0.4565   -3.1372 C   0  0  0  0  0  0  0  0  0  0  0  0
    1.8372   -1.8356   -3.2121 C   0  0  0  0  0  0  0  0  0  0  0  0
    2.6209   -2.6134   -4.5852 S   0  0  1  0  0  0  0  0  0  0  0  0
    2.0582   -3.9145   -4.6843 O   0  0  0  0  0  0  0  0  0  0  0  0
    2.5936   -1.6718   -5.6491 O   0  0  0  0  0  0  0  0  0  0  0  0
    4.2145   -2.8222   -4.1864 N   0  0  0  0  0  0  0  0  0  0  0  0
    4.6477   -4.0530   -3.5202 C   0  0  1  0  0  0  0  0  0  0  0  0
    5.1573   -5.0467   -4.5660 C   0  0  1  0  0  0  0  0  0  0  0  0
    5.6029   -6.3128   -3.8807 C   0  0  0  0  0  0  0  0  0  0  0  0
    6.9100   -6.4423   -3.4498 C   0  0  0  0  0  0  0  0  0  0  0  0
    7.3188   -7.6036   -2.8212 C   0  0  0  0  0  0  0  0  0  0  0  0
    6.4203   -8.6353   -2.6231 C   0  0  0  0  0  0  0  0  0  0  0  0
    5.1129   -8.5054   -3.0531 C   0  0  0  0  0  0  0  0  0  0  0  0
    4.7031   -7.3424   -3.6778 C   0  0  0  0  0  0  0  0  0  0  0  0
    5.1912   -1.7762   -4.4997 C   0  0  1  0  0  0  0  0  0  0  0  0
    5.3790   -0.8878   -3.2970 C   0  0  0  0  0  0  0  0  0  0  0  0
    4.7582   -1.1068   -2.2784 O   0  0  0  0  0  0  0  0  0  0  0  0
    6.2369    0.1502   -3.3533 N   0  0  0  0  0  0  0  0  0  0  0  0
    6.4195    1.0138   -2.1841 C   0  0  1  0  0  0  0  0  0  0  0  0
    7.4600    0.4193   -1.2741 C   0  0  1  0  0  0  0  0  0  0  0  0
    7.1668    0.6916    0.2137 C   0  0  1  0  0  0  0  0  0  0  0  0
    6.6759    2.1287    0.4726 C   0  0  1  0  0  0  0  0  0  0  0  0
    7.4417    3.1510   -0.3228 C   0  0  1  0  0  0  0  0  0  0  0  0
    6.6734    3.4300   -1.6308 C   0  0  1  0  0  0  0  0  0  0  0  0
    6.9039    2.4058   -2.6388 C   0  0  1  0  0  0  0  0  0  0  0  0
    1.2740   -2.6064   -2.2116 C   0  0  0  0  0  0  0  0  0  0  0  0
    0.6617   -1.9965   -1.1290 C   0  0  0  0  0  0  0  0  0  0  0  0
    0.1074   -2.7530   -0.1443 O   0  0  0  0  0  0  0  0  0  0  0  0
    0.1928   -4.1720   -0.2904 C   0  0  1  0  0  0  0  0  0  0  0  0
    1.0053    1.8021    0.0021 H   0  0  0  0  0  0  0  0  0  0  0  0
   -0.5445    1.7859   -0.8732 H   0  0  0  0  0  0  0  0  0  0  0  0
   -0.5275    1.7763    0.9067 H   0  0  0  0  0  0  0  0  0  0  0  0
    1.1343    1.2366   -2.0060 H   0  0  0  0  0  0  0  0  0  0  0  0
    2.2283    0.1421   -3.9204 H   0  0  0  0  0  0  0  0  0  0  0  0
    5.4482   -3.8231   -2.8170 H   0  0  0  0  0  0  0  0  0  0  0  0
    3.8064   -4.4906   -2.9827 H   0  0  0  0  0  0  0  0  0  0  0  0
    4.3569   -5.2766   -5.2692 H   0  0  0  0  0  0  0  0  0  0  0  0
    5.9986   -4.6091   -5.1034 H   0  0  0  0  0  0  0  0  0  0  0  0
    7.6120   -5.6362   -3.6047 H   0  0  0  0  0  0  0  0  0  0  0  0
    8.3402   -7.7050   -2.4853 H   0  0  0  0  0  0  0  0  0  0  0  0
    6.7398   -9.5429   -2.1326 H   0  0  0  0  0  0  0  0  0  0  0  0
    4.4111   -9.3116   -2.8986 H   0  0  0  0  0  0  0  0  0  0  0  0
    3.6817   -7.2410   -4.0138 H   0  0  0  0  0  0  0  0  0  0  0  0
    6.1435   -2.2358   -4.7642 H   0  0  0  0  0  0  0  0  0  0  0  0
    4.8296   -1.1810   -5.3382 H   0  0  0  0  0  0  0  0  0  0  0  0
    6.7334    0.3253   -4.1680 H   0  0  0  0  0  0  0  0  0  0  0  0
    5.4744    1.1115   -1.6499 H   0  0  0  0  0  0  0  0  0  0  0  0
    7.4952   -0.6582   -1.4352 H   0  0  0  0  0  0  0  0  0  0  0  0
    8.4321    0.8435   -1.5254 H   0  0  0  0  0  0  0  0  0  0  0  0
    6.4035   -0.0076    0.5552 H   0  0  0  0  0  0  0  0  0  0  0  0
    8.0776    0.5224    0.7881 H   0  0  0  0  0  0  0  0  0  0  0  0
    5.6206    2.1940    0.2076 H   0  0  0  0  0  0  0  0  0  0  0  0
    6.7855    2.3531    1.5337 H   0  0  0  0  0  0  0  0  0  0  0  0
    7.5303    4.0720    0.2534 H   0  0  0  0  0  0  0  0  0  0  0  0
    8.4340    2.7649   -0.5562 H   0  0  0  0  0  0  0  0  0  0  0  0
    5.6068    3.4751   -1.4108 H   0  0  0  0  0  0  0  0  0  0  0  0
    6.9911    4.3941   -2.0280 H   0  0  0  0  0  0  0  0  0  0  0  0
    7.9714    2.3555   -2.8532 H   0  0  0  0  0  0  0  0  0  0  0  0
    6.3752    2.6830   -3.5509 H   0  0  0  0  0  0  0  0  0  0  0  0
    1.3146   -3.6839   -2.2726 H   0  0  0  0  0  0  0  0  0  0  0  0
   -0.2869   -4.6545    0.5611 H   0  0  0  0  0  0  0  0  0  0  0  0
   -0.3098   -4.4735   -1.2094 H   0  0  0  0  0  0  0  0  0  0  0  0
    1.2403   -4.4703   -0.3345 H   0  0  0  0  0  0  0  0  0  0  0  0
  1  2  1  0
  1 34  1  6
  1 35  1  0
  1 36  1  0
  2  3  1  0
  3 31  2  0
  3  4  1  0
  4  5  2  0
  4 37  1  0
  5  6  1  0
  5 38  1  0
  6  7  1  0
  6 30  2  0
  7  8  2  0
  7  9  2  0
  7 10  1  1
 10 11  1  0
 10 19  1  0
 11 12  1  0
 11 39  1  1
 11 40  1  0
 12 13  1  0
 12 41  1  6
 12 42  1  0
 13 18  2  0
 13 14  1  0
 14 15  2  0
 14 43  1  0
 15 16  1  0
 15 44  1  0
 16 17  2  0
 16 45  1  0
 17 18  1  0
 17 46  1  0
 18 47  1  0
 19 20  1  0
 19 48  1  6
 19 49  1  0
 20 21  2  0
 20 22  1  0
 22 23  1  0
 22 50  1  0
 23 29  1  0
 23 24  1  0
 23 51  1  1
 24 25  1  0
 24 52  1  1
 24 53  1  0
 25 26  1  0
 25 54  1  1
 25 55  1  0
 26 27  1  0
 26 56  1  6
 26 57  1  0
 27 28  1  0
 27 58  1  1
 27 59  1  0
 28 29  1  0
 28 60  1  1
 28 61  1  0
 29 62  1  6
 29 63  1  0
 30 31  1  0
 30 64  1  0
 31 32  1  0
 32 33  1  0
 33 65  1  1
 33 66  1  0
 33 67  1  0
M  END
$$$$
