ZINC000055107700
     RDKit          3D

 49 50  0  0  1  0  0  0  0  0999 V2000
   -0.0187    1.5258    0.0104 C   0  0  1  0  0  0  0  0  0  0  0  0
    0.0021   -0.0041    0.0020 C   0  0  1  0  0  0  0  0  0  0  0  0
    0.7182   -0.4975   -1.2568 C   0  0  1  0  0  0  0  0  0  0  0  0
    0.7428   -2.3113   -1.2668 S   0  0  1  0  0  0  0  0  0  0  0  0
    1.5417   -2.7592   -0.1803 O   0  0  0  0  0  0  0  0  0  0  0  0
   -0.5928   -2.7815   -1.3859 O   0  0  0  0  0  0  0  0  0  0  0  0
    1.6205   -2.6656   -2.8142 C   0  0  2  0  0  0  0  0  0  0  0  0
    2.6456   -2.3022   -2.7419 H   0  0  0  0  0  0  0  0  0  0  0  0
    0.9115   -1.9646   -3.9747 C   0  0  1  0  0  0  0  0  0  0  0  0
    1.6308   -4.1530   -3.0567 C   0  0  0  0  0  0  0  0  0  0  0  0
    0.7671   -4.8525   -2.5713 O   0  0  0  0  0  0  0  0  0  0  0  0
    2.5998   -4.7058   -3.8129 N   0  0  0  0  0  0  0  0  0  0  0  0
    3.6600   -3.8766   -4.4059 C   0  0  1  0  0  0  0  0  0  0  0  0
    5.0167   -4.4958   -4.0533 C   0  0  1  0  0  0  0  0  0  0  0  0
    5.0290   -5.9064   -4.4632 N   0  0  0  0  0  0  0  0  0  0  0  0
    6.3013   -6.4615   -4.3085 C   0  0  0  0  0  0  0  0  0  0  0  0
    7.3435   -5.6869   -3.8157 C   0  0  0  0  0  0  0  0  0  0  0  0
    8.6003   -6.2392   -3.6636 C   0  0  0  0  0  0  0  0  0  0  0  0
    8.8216   -7.5616   -4.0012 C   0  0  0  0  0  0  0  0  0  0  0  0
    7.7861   -8.3356   -4.4926 C   0  0  0  0  0  0  0  0  0  0  0  0
    8.0320   -9.7765   -4.8593 C   0  0  1  0  0  0  0  0  0  0  0  0
    9.3719  -10.0973   -4.6168 F   0  0  0  0  0  0  0  0  0  0  0  0
    7.2078  -10.6016   -4.0865 F   0  0  0  0  0  0  0  0  0  0  0  0
    7.7445   -9.9684   -6.2149 F   0  0  0  0  0  0  0  0  0  0  0  0
    6.5258   -7.7915   -4.6418 C   0  0  0  0  0  0  0  0  0  0  0  0
    4.0225   -6.6837   -3.7279 C   0  0  1  0  0  0  0  0  0  0  0  0
    2.6285   -6.1550   -4.0621 C   0  0  1  0  0  0  0  0  0  0  0  0
    1.0039    1.9031    0.0027 H   0  0  0  0  0  0  0  0  0  0  0  0
   -0.5459    1.8868   -0.8726 H   0  0  0  0  0  0  0  0  0  0  0  0
   -0.5289    1.8773    0.9072 H   0  0  0  0  0  0  0  0  0  0  0  0
    0.5293   -0.3651    0.8851 H   0  0  0  0  0  0  0  0  0  0  0  0
   -1.0205   -0.3814    0.0098 H   0  0  0  0  0  0  0  0  0  0  0  0
    0.1910   -0.1364   -2.1398 H   0  0  0  0  0  0  0  0  0  0  0  0
    1.7408   -0.1202   -1.2645 H   0  0  0  0  0  0  0  0  0  0  0  0
   -0.1135   -2.3280   -4.0470 H   0  0  0  0  0  0  0  0  0  0  0  0
    0.9041   -0.8888   -3.7994 H   0  0  0  0  0  0  0  0  0  0  0  0
    1.4389   -2.1775   -4.9046 H   0  0  0  0  0  0  0  0  0  0  0  0
    3.5405   -3.8490   -5.4890 H   0  0  0  0  0  0  0  0  0  0  0  0
    3.6030   -2.8657   -4.0025 H   0  0  0  0  0  0  0  0  0  0  0  0
    5.8084   -3.9584   -4.5754 H   0  0  0  0  0  0  0  0  0  0  0  0
    5.1788   -4.4281   -2.9776 H   0  0  0  0  0  0  0  0  0  0  0  0
    7.1714   -4.6538   -3.5522 H   0  0  0  0  0  0  0  0  0  0  0  0
    9.4112   -5.6373   -3.2808 H   0  0  0  0  0  0  0  0  0  0  0  0
    9.8053   -7.9909   -3.8812 H   0  0  0  0  0  0  0  0  0  0  0  0
    5.7177   -8.3964   -5.0256 H   0  0  0  0  0  0  0  0  0  0  0  0
    4.0931   -7.7331   -4.0139 H   0  0  0  0  0  0  0  0  0  0  0  0
    4.1984   -6.5856   -2.6567 H   0  0  0  0  0  0  0  0  0  0  0  0
    1.8885   -6.6509   -3.4339 H   0  0  0  0  0  0  0  0  0  0  0  0
    2.4072   -6.3444   -5.1124 H   0  0  0  0  0  0  0  0  0  0  0  0
  1  2  1  0
  1 28  1  6
  1 29  1  0
  1 30  1  0
  2  3  1  0
  2 31  1  1
  2 32  1  0
  3  4  1  0
  3 33  1  6
  3 34  1  0
  4  5  2  0
  4  6  2  0
  4  7  1  6
  7  8  1  1
  7  9  1  0
  7 10  1  0
  9 35  1  6
  9 36  1  0
  9 37  1  0
 10 11  2  0
 10 12  1  0
 12 27  1  0
 12 13  1  0
 13 14  1  0
 13 38  1  6
 13 39  1  0
 14 15  1  0
 14 40  1  6
 14 41  1  0
 15 16  1  0
 15 26  1  0
 16 25  2  0
 16 17  1  0
 17 18  2  0
 17 42  1  0
 18 19  1  0
 18 43  1  0
 19 20  2  0
 19 44  1  0
 20 21  1  0
 20 25  1  0
 21 22  1  6
 21 23  1  0
 21 24  1  0
 25 45  1  0
 26 27  1  0
 26 46  1  6
 26 47  1  0
 27 48  1  1
 27 49  1  0
M  END
$$$$
