ZINC000408616976
     RDKit          3D

 54 56  0  0  0  0  0  0  0  0999 V2000
   -0.0109    1.5660   -0.0186 C   0  0  1  0  0  0  0  0  0  0  0  0
    0.0024    0.0360   -0.0200 C   0  0  1  0  0  0  0  0  0  0  0  0
    0.7181   -0.4665   -1.2758 C   0  0  1  0  0  0  0  0  0  0  0  0
    0.6991   -1.9982   -1.2911 C   0  0  1  0  0  0  0  0  0  0  0  0
    1.2731   -2.4909   -0.0316 N   0  0  0  0  0  0  0  0  0  0  0  0
    2.5222   -3.5781   -0.0418 S   0  0  1  0  0  0  0  0  0  0  0  0
    2.4766   -4.2534    1.2076 O   0  0  0  0  0  0  0  0  0  0  0  0
    2.4583   -4.2509   -1.2917 O   0  0  0  0  0  0  0  0  0  0  0  0
    4.0205   -2.6509   -0.0519 C   0  0  0  0  0  0  0  0  0  0  0  0
    4.5955   -2.2816   -1.2538 C   0  0  0  0  0  0  0  0  0  0  0  0
    5.7702   -1.5547   -1.2644 C   0  0  0  0  0  0  0  0  0  0  0  0
    6.3726   -1.1948   -0.0677 C   0  0  0  0  0  0  0  0  0  0  0  0
    7.5280   -0.4793   -0.0755 O   0  0  0  0  0  0  0  0  0  0  0  0
    8.0920   -0.1440    1.1940 C   0  0  1  0  0  0  0  0  0  0  0  0
    9.3602    0.6436    0.9880 C   0  0  0  0  0  0  0  0  0  0  0  0
    9.7434    0.8931   -0.1354 O   0  0  0  0  0  0  0  0  0  0  0  0
   10.0687    1.0706    2.0520 N   0  0  0  0  0  0  0  0  0  0  0  0
   11.2951    1.7170    1.8623 C   0  0  0  0  0  0  0  0  0  0  0  0
   12.3312    1.5228    2.7663 C   0  0  0  0  0  0  0  0  0  0  0  0
   13.5405    2.1623    2.5762 C   0  0  0  0  0  0  0  0  0  0  0  0
   13.7200    2.9956    1.4874 C   0  0  0  0  0  0  0  0  0  0  0  0
   15.0406    3.6923    1.2833 C   0  0  1  0  0  0  0  0  0  0  0  0
   15.8790    2.8844    0.5077 F   0  0  0  0  0  0  0  0  0  0  0  0
   14.8292    4.9099    0.6276 F   0  0  0  0  0  0  0  0  0  0  0  0
   15.6396    3.9292    2.5252 F   0  0  0  0  0  0  0  0  0  0  0  0
   12.6903    3.1908    0.5852 C   0  0  0  0  0  0  0  0  0  0  0  0
   11.4805    2.5497    0.7665 C   0  0  0  0  0  0  0  0  0  0  0  0
    5.7934   -1.5661    1.1370 C   0  0  0  0  0  0  0  0  0  0  0  0
    4.6162   -2.2889    1.1422 C   0  0  0  0  0  0  0  0  0  0  0  0
    0.7180   -2.0003    1.2373 C   0  0  1  0  0  0  0  0  0  0  0  0
    0.7368   -0.4686    1.2243 C   0  0  1  0  0  0  0  0  0  0  0  0
    1.0136    1.9382   -0.0253 H   0  0  0  0  0  0  0  0  0  0  0  0
   -0.5339    1.9256   -0.9047 H   0  0  0  0  0  0  0  0  0  0  0  0
   -0.5217    1.9241    0.8752 H   0  0  0  0  0  0  0  0  0  0  0  0
   -1.0222   -0.3360   -0.0127 H   0  0  0  0  0  0  0  0  0  0  0  0
    0.2082   -0.0875   -2.1615 H   0  0  0  0  0  0  0  0  0  0  0  0
    1.7501   -0.1155   -1.2715 H   0  0  0  0  0  0  0  0  0  0  0  0
   -0.3281   -2.3500   -1.3869 H   0  0  0  0  0  0  0  0  0  0  0  0
    1.2920   -2.3627   -2.1301 H   0  0  0  0  0  0  0  0  0  0  0  0
    4.1261   -2.5621   -2.1852 H   0  0  0  0  0  0  0  0  0  0  0  0
    6.2193   -1.2671   -2.2036 H   0  0  0  0  0  0  0  0  0  0  0  0
    7.3800    0.4557    1.7609 H   0  0  0  0  0  0  0  0  0  0  0  0
    8.3170   -1.0575    1.7443 H   0  0  0  0  0  0  0  0  0  0  0  0
    9.7284    0.9298    2.9494 H   0  0  0  0  0  0  0  0  0  0  0  0
   12.1914    0.8726    3.6173 H   0  0  0  0  0  0  0  0  0  0  0  0
   14.3467    2.0117    3.2789 H   0  0  0  0  0  0  0  0  0  0  0  0
   12.8336    3.8422   -0.2642 H   0  0  0  0  0  0  0  0  0  0  0  0
   10.6768    2.7025    0.0615 H   0  0  0  0  0  0  0  0  0  0  0  0
    6.2607   -1.2874    2.0699 H   0  0  0  0  0  0  0  0  0  0  0  0
    4.1647   -2.5779    2.0798 H   0  0  0  0  0  0  0  0  0  0  0  0
   -0.3077   -2.3522    1.3478 H   0  0  0  0  0  0  0  0  0  0  0  0
    1.3233   -2.3662    2.0667 H   0  0  0  0  0  0  0  0  0  0  0  0
    1.7686   -0.1176    1.2051 H   0  0  0  0  0  0  0  0  0  0  0  0
    0.2401   -0.0910    2.1181 H   0  0  0  0  0  0  0  0  0  0  0  0
  1  2  1  0
  1 32  1  6
  1 33  1  0
  1 34  1  0
  2 31  1  0
  2  3  1  0
  2 35  1  1
  3  4  1  0
  3 36  1  6
  3 37  1  0
  4  5  1  0
  4 38  1  6
  4 39  1  0
  6  5  1  1
  5 30  1  0
  6  7  2  0
  6  8  2  0
  6  9  1  0
  9 29  2  0
  9 10  1  0
 10 11  2  0
 10 40  1  0
 11 12  1  0
 11 41  1  0
 12 13  1  0
 12 28  2  0
 13 14  1  0
 14 15  1  0
 14 42  1  1
 14 43  1  0
 15 16  2  0
 15 17  1  0
 17 18  1  0
 17 44  1  0
 18 27  2  0
 18 19  1  0
 19 20  2  0
 19 45  1  0
 20 21  1  0
 20 46  1  0
 21 22  1  0
 21 26  2  0
 22 23  1  6
 22 24  1  0
 22 25  1  0
 26 27  1  0
 26 47  1  0
 27 48  1  0
 28 29  1  0
 28 49  1  0
 29 50  1  0
 30 31  1  0
 30 51  1  1
 30 52  1  0
 31 53  1  6
 31 54  1  0
M  END
$$$$
