ZINC000002960123
     RDKit          3D

 53 54  0  0  1  0  0  0  0  0999 V2000
   -0.0187    1.5258    0.0104 C   0  0  1  0  0  0  0  0  0  0  0  0
    0.0021   -0.0041    0.0020 C   0  0  1  0  0  0  0  0  0  0  0  0
   -1.4333   -0.5336    0.0129 C   0  0  2  0  0  0  0  0  0  0  0  0
   -1.9701   -0.1109    0.8621 H   0  0  0  0  0  0  0  0  0  0  0  0
   -1.4133   -2.0590    0.1302 C   0  0  1  0  0  0  0  0  0  0  0  0
   -2.1054   -0.1483   -1.2305 N   0  0  0  0  0  0  0  0  0  0  0  0
   -3.4483   -0.0395   -1.2649 C   0  0  0  0  0  0  0  0  0  0  0  0
   -4.1004   -0.2606   -0.2665 O   0  0  0  0  0  0  0  0  0  0  0  0
   -4.1397    0.3569   -2.5439 C   0  0  1  0  0  0  0  0  0  0  0  0
   -5.5870    0.4043   -2.3222 N   0  0  0  0  0  0  0  0  0  0  0  0
   -6.2053    1.6156   -1.7775 C   0  0  1  0  0  0  0  0  0  0  0  0
   -6.4910    2.5815   -2.8985 C   0  0  0  0  0  0  0  0  0  0  0  0
   -5.5364    3.5088   -3.2720 C   0  0  0  0  0  0  0  0  0  0  0  0
   -5.7984    4.3948   -4.3002 C   0  0  0  0  0  0  0  0  0  0  0  0
   -7.0150    4.3531   -4.9553 C   0  0  0  0  0  0  0  0  0  0  0  0
   -7.9693    3.4251   -4.5824 C   0  0  0  0  0  0  0  0  0  0  0  0
   -7.7056    2.5363   -3.5570 C   0  0  0  0  0  0  0  0  0  0  0  0
   -6.5242   -0.9112   -2.6874 S   0  0  1  0  0  0  0  0  0  0  0  0
   -7.8397   -0.4193   -2.9033 O   0  0  0  0  0  0  0  0  0  0  0  0
   -5.8050   -1.6592   -3.6583 O   0  0  0  0  0  0  0  0  0  0  0  0
   -6.5996   -1.9154   -1.2415 C   0  0  0  0  0  0  0  0  0  0  0  0
   -5.6505   -2.8992   -1.0342 C   0  0  0  0  0  0  0  0  0  0  0  0
   -5.7075   -3.6878    0.0986 C   0  0  0  0  0  0  0  0  0  0  0  0
   -6.7178   -3.4916    1.0289 C   0  0  0  0  0  0  0  0  0  0  0  0
   -6.7757   -4.2658    2.1443 O   0  0  0  0  0  0  0  0  0  0  0  0
   -7.8433   -4.0077    3.0585 C   0  0  1  0  0  0  0  0  0  0  0  0
   -7.6686   -2.5035    0.8188 C   0  0  0  0  0  0  0  0  0  0  0  0
   -7.6045   -1.7144   -0.3133 C   0  0  0  0  0  0  0  0  0  0  0  0
    1.0039    1.9031    0.0027 H   0  0  0  0  0  0  0  0  0  0  0  0
   -0.5459    1.8868   -0.8726 H   0  0  0  0  0  0  0  0  0  0  0  0
   -0.5289    1.8773    0.9072 H   0  0  0  0  0  0  0  0  0  0  0  0
    0.5123   -0.3556   -0.8948 H   0  0  0  0  0  0  0  0  0  0  0  0
    0.5293   -0.3651    0.8851 H   0  0  0  0  0  0  0  0  0  0  0  0
   -0.9132   -2.3457    1.0553 H   0  0  0  0  0  0  0  0  0  0  0  0
   -2.4359   -2.4363    0.1380 H   0  0  0  0  0  0  0  0  0  0  0  0
   -0.8764   -2.4817   -0.7190 H   0  0  0  0  0  0  0  0  0  0  0  0
   -1.5839    0.0285   -2.0291 H   0  0  0  0  0  0  0  0  0  0  0  0
   -3.7878    1.3396   -2.8577 H   0  0  0  0  0  0  0  0  0  0  0  0
   -3.9148   -0.3745   -3.3202 H   0  0  0  0  0  0  0  0  0  0  0  0
   -7.1375    1.3541   -1.2768 H   0  0  0  0  0  0  0  0  0  0  0  0
   -5.5265    2.0798   -1.0621 H   0  0  0  0  0  0  0  0  0  0  0  0
   -4.5859    3.5414   -2.7601 H   0  0  0  0  0  0  0  0  0  0  0  0
   -5.0528    5.1198   -4.5915 H   0  0  0  0  0  0  0  0  0  0  0  0
   -7.2200    5.0457   -5.7582 H   0  0  0  0  0  0  0  0  0  0  0  0
   -8.9199    3.3927   -5.0940 H   0  0  0  0  0  0  0  0  0  0  0  0
   -8.4512    1.8113   -3.2657 H   0  0  0  0  0  0  0  0  0  0  0  0
   -4.8642   -3.0516   -1.7587 H   0  0  0  0  0  0  0  0  0  0  0  0
   -4.9663   -4.4567    0.2597 H   0  0  0  0  0  0  0  0  0  0  0  0
   -7.7727   -4.6937    3.9026 H   0  0  0  0  0  0  0  0  0  0  0  0
   -7.7736   -2.9810    3.4179 H   0  0  0  0  0  0  0  0  0  0  0  0
   -8.7978   -4.1514    2.5523 H   0  0  0  0  0  0  0  0  0  0  0  0
   -8.4563   -2.3490    1.5414 H   0  0  0  0  0  0  0  0  0  0  0  0
   -8.3443   -0.9447   -0.4771 H   0  0  0  0  0  0  0  0  0  0  0  0
  1  2  1  0
  1 29  1  6
  1 30  1  0
  1 31  1  0
  2  3  1  0
  2 32  1  6
  2 33  1  0
  3  4  1  1
  3  5  1  0
  3  6  1  0
  5 34  1  1
  5 35  1  0
  5 36  1  0
  6  7  1  0
  6 37  1  0
  7  8  2  0
  7  9  1  0
  9 10  1  0
  9 38  1  6
  9 39  1  0
 10 11  1  0
 18 10  1  1
 11 12  1  0
 11 40  1  1
 11 41  1  0
 12 17  2  0
 12 13  1  0
 13 14  2  0
 13 42  1  0
 14 15  1  0
 14 43  1  0
 15 16  2  0
 15 44  1  0
 16 17  1  0
 16 45  1  0
 17 46  1  0
 18 19  2  0
 18 20  2  0
 18 21  1  0
 21 28  2  0
 21 22  1  0
 22 23  2  0
 22 47  1  0
 23 24  1  0
 23 48  1  0
 24 25  1  0
 24 27  2  0
 25 26  1  0
 26 49  1  1
 26 50  1  0
 26 51  1  0
 27 28  1  0
 27 52  1  0
 28 53  1  0
M  END
$$$$
