ZINC000035392760
     RDKit          3D

 45 47  0  0  1  0  0  0  0  0999 V2000
   -0.1882   -0.7801    2.1058 C   0  0  1  0  0  0  0  0  0  0  0  0
   -0.1852   -1.8621    1.1123 N   0  0  0  0  0  0  0  0  0  0  0  0
   -1.4934   -2.5280    1.0552 C   0  0  1  0  0  0  0  0  0  0  0  0
   -1.5063   -3.5224   -0.1106 C   0  0  1  0  0  0  0  0  0  0  0  0
   -0.3544   -4.4256    0.0329 N   0  0  0  0  0  0  0  0  0  0  0  0
   -0.5499   -6.0689   -0.0290 S   0  0  1  0  0  0  0  0  0  0  0  0
    0.4928   -6.6270    0.7588 O   0  0  0  0  0  0  0  0  0  0  0  0
   -1.9273   -6.3186    0.2152 O   0  0  0  0  0  0  0  0  0  0  0  0
   -0.2404   -6.5687   -1.6901 C   0  0  0  0  0  0  0  0  0  0  0  0
    0.7592   -7.4834   -1.9617 C   0  0  0  0  0  0  0  0  0  0  0  0
    1.0022   -7.8757   -3.2650 C   0  0  0  0  0  0  0  0  0  0  0  0
    2.0925   -8.8732   -3.5606 C   0  0  1  0  0  0  0  0  0  0  0  0
    1.5643  -10.1680   -3.5166 F   0  0  0  0  0  0  0  0  0  0  0  0
    2.6175   -8.6267   -4.8337 F   0  0  0  0  0  0  0  0  0  0  0  0
    3.1077   -8.7510   -2.6058 F   0  0  0  0  0  0  0  0  0  0  0  0
    0.2452   -7.3536   -4.2970 C   0  0  0  0  0  0  0  0  0  0  0  0
   -0.7550   -6.4386   -4.0265 C   0  0  0  0  0  0  0  0  0  0  0  0
   -1.0020   -6.0497   -2.7222 C   0  0  0  0  0  0  0  0  0  0  0  0
   -2.2580   -4.9006   -2.3817 Cl  0  0  0  0  0  0  0  0  0  0  0  0
    0.9758   -3.8306    0.2325 C   0  0  2  0  0  0  0  0  0  0  0  0
    1.2885   -3.3194   -0.6780 H   0  0  0  0  0  0  0  0  0  0  0  0
    1.9685   -4.9125    0.5720 C   0  0  0  0  0  0  0  0  0  0  0  0
    2.3063   -5.1513    1.8910 C   0  0  0  0  0  0  0  0  0  0  0  0
    3.2169   -6.1436    2.2024 C   0  0  0  0  0  0  0  0  0  0  0  0
    3.7894   -6.8974    1.1949 C   0  0  0  0  0  0  0  0  0  0  0  0
    3.4509   -6.6591   -0.1240 C   0  0  0  0  0  0  0  0  0  0  0  0
    2.5370   -5.6697   -0.4351 C   0  0  0  0  0  0  0  0  0  0  0  0
    0.8910   -2.8241    1.3848 C   0  0  1  0  0  0  0  0  0  0  0  0
    0.7664   -0.2549    2.0738 H   0  0  0  0  0  0  0  0  0  0  0  0
   -0.9946   -0.0821    1.8805 H   0  0  0  0  0  0  0  0  0  0  0  0
   -0.3386   -1.2003    3.1002 H   0  0  0  0  0  0  0  0  0  0  0  0
   -1.6715   -3.0606    1.9895 H   0  0  0  0  0  0  0  0  0  0  0  0
   -2.2747   -1.7828    0.9063 H   0  0  0  0  0  0  0  0  0  0  0  0
   -2.4300   -4.1007   -0.0885 H   0  0  0  0  0  0  0  0  0  0  0  0
   -1.4321   -2.9816   -1.0540 H   0  0  0  0  0  0  0  0  0  0  0  0
    1.3510   -7.8917   -1.1558 H   0  0  0  0  0  0  0  0  0  0  0  0
    0.4355   -7.6604   -5.3149 H   0  0  0  0  0  0  0  0  0  0  0  0
   -1.3464   -6.0308   -4.8329 H   0  0  0  0  0  0  0  0  0  0  0  0
    1.8591   -4.5624    2.6781 H   0  0  0  0  0  0  0  0  0  0  0  0
    3.4814   -6.3298    3.2329 H   0  0  0  0  0  0  0  0  0  0  0  0
    4.5013   -7.6722    1.4382 H   0  0  0  0  0  0  0  0  0  0  0  0
    3.8984   -7.2478   -0.9112 H   0  0  0  0  0  0  0  0  0  0  0  0
    2.2726   -5.4835   -1.4656 H   0  0  0  0  0  0  0  0  0  0  0  0
    1.8389   -2.2936    1.4749 H   0  0  0  0  0  0  0  0  0  0  0  0
    0.6797   -3.3525    2.3145 H   0  0  0  0  0  0  0  0  0  0  0  0
  1  2  1  0
  1 29  1  1
  1 30  1  0
  1 31  1  0
  2 28  1  0
  2  3  1  0
  3  4  1  0
  3 32  1  1
  3 33  1  0
  4  5  1  0
  4 34  1  6
  4 35  1  0
  6  5  1  6
  5 20  1  0
  6  7  2  0
  6  8  2  0
  6  9  1  0
  9 18  2  0
  9 10  1  0
 10 11  2  0
 10 36  1  0
 11 12  1  0
 11 16  1  0
 12 13  1  6
 12 14  1  0
 12 15  1  0
 16 17  2  0
 16 37  1  0
 17 18  1  0
 17 38  1  0
 18 19  1  0
 20 21  1  6
 20 22  1  0
 20 28  1  0
 22 27  2  0
 22 23  1  0
 23 24  2  0
 23 39  1  0
 24 25  1  0
 24 40  1  0
 25 26  2  0
 25 41  1  0
 26 27  1  0
 26 42  1  0
 27 43  1  0
 28 44  1  1
 28 45  1  0
M  END
$$$$
