ZINC000096120094
     RDKit          3D

 50 51  0  0  1  0  0  0  0  0999 V2000
    0.5195    1.5871   -0.2735 C   0  0  1  0  0  0  0  0  0  0  0  0
    0.0011    0.1559   -0.1188 C   0  0  1  0  0  0  0  0  0  0  0  0
    0.5702   -0.4569    1.1624 C   0  0  1  0  0  0  0  0  0  0  0  0
   -1.5269    0.1725   -0.0412 C   0  0  1  0  0  0  0  0  0  0  0  0
    0.5233   -0.8340   -1.5464 S   0  0  1  0  0  0  0  0  0  0  0  0
    0.2812   -2.2046   -1.2599 O   0  0  0  0  0  0  0  0  0  0  0  0
   -0.0336   -0.2621   -2.7220 O   0  0  0  0  0  0  0  0  0  0  0  0
    2.3156   -0.5544   -1.5608 C   0  0  1  0  0  0  0  0  0  0  0  0
    2.5441    0.5069   -1.4636 H   0  0  0  0  0  0  0  0  0  0  0  0
    3.0159   -1.3783   -0.4481 C   0  0  1  0  0  0  0  0  0  0  0  0
    4.4402   -1.5754   -1.0085 C   0  0  1  0  0  0  0  0  0  0  0  0
    4.3620   -1.4105   -2.4674 N   0  0  0  0  0  0  0  0  0  0  0  0
    5.4000   -1.4882   -3.3234 C   0  0  0  0  0  0  0  0  0  0  0  0
    5.2180   -1.3352   -4.5127 O   0  0  0  0  0  0  0  0  0  0  0  0
    6.7868   -1.7654   -2.8029 C   0  0  1  0  0  0  0  0  0  0  0  0
    7.7726   -1.8021   -3.9724 C   0  0  1  0  0  0  0  0  0  0  0  0
    9.1595   -2.0792   -3.4519 C   0  0  0  0  0  0  0  0  0  0  0  0
    9.9825   -1.0308   -3.0855 C   0  0  0  0  0  0  0  0  0  0  0  0
   11.2546   -1.2850   -2.6080 C   0  0  0  0  0  0  0  0  0  0  0  0
   11.7035   -2.5877   -2.4966 C   0  0  0  0  0  0  0  0  0  0  0  0
   13.0906   -2.8648   -1.9765 C   0  0  1  0  0  0  0  0  0  0  0  0
   13.0471   -3.0082   -0.5856 F   0  0  0  0  0  0  0  0  0  0  0  0
   13.5775   -4.0434   -2.5519 F   0  0  0  0  0  0  0  0  0  0  0  0
   13.9348   -1.8000   -2.3094 F   0  0  0  0  0  0  0  0  0  0  0  0
   10.8800   -3.6362   -2.8618 C   0  0  0  0  0  0  0  0  0  0  0  0
    9.6065   -3.3821   -3.3356 C   0  0  0  0  0  0  0  0  0  0  0  0
    2.9596   -1.1463   -2.8393 C   0  0  1  0  0  0  0  0  0  0  0  0
    1.6080    1.5752   -0.3288 H   0  0  0  0  0  0  0  0  0  0  0  0
    0.1140    2.0237   -1.1863 H   0  0  0  0  0  0  0  0  0  0  0  0
    0.2057    2.1819    0.5843 H   0  0  0  0  0  0  0  0  0  0  0  0
    0.1359    0.0429    2.0282 H   0  0  0  0  0  0  0  0  0  0  0  0
    0.3272   -1.5190    1.1962 H   0  0  0  0  0  0  0  0  0  0  0  0
    1.6529   -0.3313    1.1754 H   0  0  0  0  0  0  0  0  0  0  0  0
   -1.9323    0.6091   -0.9540 H   0  0  0  0  0  0  0  0  0  0  0  0
   -1.8961   -0.8471    0.0690 H   0  0  0  0  0  0  0  0  0  0  0  0
   -1.8406    0.7673    0.8166 H   0  0  0  0  0  0  0  0  0  0  0  0
    3.0434   -0.8185    0.4868 H   0  0  0  0  0  0  0  0  0  0  0  0
    2.5197   -2.3388   -0.3092 H   0  0  0  0  0  0  0  0  0  0  0  0
    5.1115   -0.8276   -0.5864 H   0  0  0  0  0  0  0  0  0  0  0  0
    4.7982   -2.5763   -0.7673 H   0  0  0  0  0  0  0  0  0  0  0  0
    7.0778   -0.9784   -2.1071 H   0  0  0  0  0  0  0  0  0  0  0  0
    6.7967   -2.7266   -2.2891 H   0  0  0  0  0  0  0  0  0  0  0  0
    7.4817   -2.5891   -4.6683 H   0  0  0  0  0  0  0  0  0  0  0  0
    7.7628   -0.8409   -4.4863 H   0  0  0  0  0  0  0  0  0  0  0  0
    9.6318   -0.0131   -3.1726 H   0  0  0  0  0  0  0  0  0  0  0  0
   11.8979   -0.4659   -2.3224 H   0  0  0  0  0  0  0  0  0  0  0  0
   11.2306   -4.6539   -2.7743 H   0  0  0  0  0  0  0  0  0  0  0  0
    8.9631   -4.2013   -3.6209 H   0  0  0  0  0  0  0  0  0  0  0  0
    2.4605   -2.0737   -3.1202 H   0  0  0  0  0  0  0  0  0  0  0  0
    2.9131   -0.4268   -3.6568 H   0  0  0  0  0  0  0  0  0  0  0  0
  1  2  1  0
  1 28  1  6
  1 29  1  0
  1 30  1  0
  2  3  1  0
  2  4  1  0
  2  5  1  6
  3 31  1  1
  3 32  1  0
  3 33  1  0
  4 34  1  6
  4 35  1  0
  4 36  1  0
  5  6  2  0
  5  7  2  0
  5  8  1  6
  8  9  1  1
  8 27  1  0
  8 10  1  0
 10 11  1  0
 10 37  1  1
 10 38  1  0
 11 12  1  0
 11 39  1  1
 11 40  1  0
 12 13  1  0
 12 27  1  0
 13 14  2  0
 13 15  1  0
 15 16  1  0
 15 41  1  1
 15 42  1  0
 16 17  1  0
 16 43  1  6
 16 44  1  0
 17 26  2  0
 17 18  1  0
 18 19  2  0
 18 45  1  0
 19 20  1  0
 19 46  1  0
 20 21  1  0
 20 25  2  0
 21 22  1  1
 21 23  1  0
 21 24  1  0
 25 26  1  0
 25 47  1  0
 26 48  1  0
 27 49  1  6
 27 50  1  0
M  END
$$$$
