ZINC000012883511
     RDKit          3D

 39 40  0  0  1  0  0  0  0  0999 V2000
   -0.0187    1.5258    0.0104 C   0  0  1  0  0  0  0  0  0  0  0  0
    0.0021   -0.0041    0.0020 C   0  0  2  0  0  0  0  0  0  0  0  0
    0.5122   -0.3561   -0.8946 H   0  0  0  0  0  0  0  0  0  0  0  0
   -1.4334   -0.5345    0.0145 C   0  0  1  0  0  0  0  0  0  0  0  0
   -1.4142   -2.0642   -0.0270 C   0  0  2  0  0  0  0  0  0  0  0  0
   -0.8906   -2.3972   -0.9231 H   0  0  0  0  0  0  0  0  0  0  0  0
   -2.8500   -2.5925   -0.0485 C   0  0  1  0  0  0  0  0  0  0  0  0
   -0.6916   -2.5957    1.2148 C   0  0  1  0  0  0  0  0  0  0  0  0
    0.6392   -1.9773    1.2884 N   0  0  0  0  0  0  0  0  0  0  0  0
    1.9987   -2.9138    1.4188 S   0  0  1  0  0  0  0  0  0  0  0  0
    2.9971   -2.0919    2.0077 O   0  0  0  0  0  0  0  0  0  0  0  0
    1.5812   -4.1514    1.9786 O   0  0  0  0  0  0  0  0  0  0  0  0
    2.5472   -3.2678   -0.2178 C   0  0  0  0  0  0  0  0  0  0  0  0
    2.0799   -4.3899   -0.8757 C   0  0  0  0  0  0  0  0  0  0  0  0
    2.5102   -4.6676   -2.1599 C   0  0  0  0  0  0  0  0  0  0  0  0
    3.4074   -3.8229   -2.7859 C   0  0  0  0  0  0  0  0  0  0  0  0
    3.8741   -2.7000   -2.1282 C   0  0  0  0  0  0  0  0  0  0  0  0
    4.8527   -1.7793   -2.8106 C   0  0  1  0  0  0  0  0  0  0  0  0
    5.1359   -2.2662   -4.0912 F   0  0  0  0  0  0  0  0  0  0  0  0
    4.2969   -0.4994   -2.9106 F   0  0  0  0  0  0  0  0  0  0  0  0
    6.0339   -1.7177   -2.0634 F   0  0  0  0  0  0  0  0  0  0  0  0
    3.4406   -2.4201   -0.8460 C   0  0  0  0  0  0  0  0  0  0  0  0
    0.7415   -0.5122    1.2437 C   0  0  1  0  0  0  0  0  0  0  0  0
    1.0039    1.9031    0.0027 H   0  0  0  0  0  0  0  0  0  0  0  0
   -0.5459    1.8868   -0.8726 H   0  0  0  0  0  0  0  0  0  0  0  0
   -0.5289    1.8773    0.9072 H   0  0  0  0  0  0  0  0  0  0  0  0
   -1.9355   -0.2021    0.9231 H   0  0  0  0  0  0  0  0  0  0  0  0
   -1.9686   -0.1542   -0.8556 H   0  0  0  0  0  0  0  0  0  0  0  0
   -3.3641   -2.2117   -0.9309 H   0  0  0  0  0  0  0  0  0  0  0  0
   -2.8358   -3.6820   -0.0780 H   0  0  0  0  0  0  0  0  0  0  0  0
   -3.3728   -2.2602    0.8483 H   0  0  0  0  0  0  0  0  0  0  0  0
   -1.2630   -2.3406    2.1072 H   0  0  0  0  0  0  0  0  0  0  0  0
   -0.5879   -3.6783    1.1418 H   0  0  0  0  0  0  0  0  0  0  0  0
    1.3788   -5.0499   -0.3865 H   0  0  0  0  0  0  0  0  0  0  0  0
    2.1456   -5.5448   -2.6737 H   0  0  0  0  0  0  0  0  0  0  0  0
    3.7441   -4.0403   -3.7888 H   0  0  0  0  0  0  0  0  0  0  0  0
    3.8052   -1.5429   -0.3321 H   0  0  0  0  0  0  0  0  0  0  0  0
    1.7904   -0.2207    1.1903 H   0  0  0  0  0  0  0  0  0  0  0  0
    0.2870   -0.0867    2.1384 H   0  0  0  0  0  0  0  0  0  0  0  0
  1  2  1  0
  1 24  1  6
  1 25  1  0
  1 26  1  0
  2  3  1  6
  2 23  1  0
  2  4  1  0
  4  5  1  0
  4 27  1  1
  4 28  1  0
  5  6  1  6
  5  7  1  0
  5  8  1  0
  7 29  1  6
  7 30  1  0
  7 31  1  0
  8  9  1  0
  8 32  1  1
  8 33  1  0
 10  9  1  6
  9 23  1  0
 10 11  2  0
 10 12  2  0
 10 13  1  0
 13 22  2  0
 13 14  1  0
 14 15  2  0
 14 34  1  0
 15 16  1  0
 15 35  1  0
 16 17  2  0
 16 36  1  0
 17 18  1  0
 17 22  1  0
 18 19  1  6
 18 20  1  0
 18 21  1  0
 22 37  1  0
 23 38  1  6
 23 39  1  0
M  END
$$$$
