ZINC000034812841
     RDKit          3D

 49 52  0  0  1  0  0  0  0  0999 V2000
   -2.2581   -0.8329    1.3458 C   0  0  1  0  0  0  0  0  0  0  0  0
   -2.3649   -0.0762    0.0470 C   0  0  0  0  0  0  0  0  0  0  0  0
   -2.5343    1.1247    0.0570 O   0  0  0  0  0  0  0  0  0  0  0  0
   -2.2722   -0.7339   -1.1257 N   0  0  0  0  0  0  0  0  0  0  0  0
   -2.2073   -2.2018   -1.1570 C   0  0  1  0  0  0  0  0  0  0  0  0
   -0.9505   -2.6204   -1.9299 C   0  0  1  0  0  0  0  0  0  0  0  0
   -0.9130   -1.8826   -3.2004 N   0  0  0  0  0  0  0  0  0  0  0  0
   -0.8192   -2.5544   -4.3981 C   0  0  0  0  0  0  0  0  0  0  0  0
   -0.9136   -3.8385   -4.3646 N   0  0  0  0  0  0  0  0  0  0  0  0
   -0.8256   -4.6937   -5.4219 C   0  0  0  0  0  0  0  0  0  0  0  0
   -0.1345   -5.8982   -5.2610 C   0  0  0  0  0  0  0  0  0  0  0  0
   -0.0553   -6.7977   -6.3054 C   0  0  0  0  0  0  0  0  0  0  0  0
   -0.6609   -6.5134   -7.5146 C   0  0  0  0  0  0  0  0  0  0  0  0
   -0.5842   -7.5063   -8.6457 C   0  0  1  0  0  0  0  0  0  0  0  0
    0.1451   -8.6269   -8.2340 F   0  0  0  0  0  0  0  0  0  0  0  0
   -1.8766   -7.8991   -9.0098 F   0  0  0  0  0  0  0  0  0  0  0  0
    0.0500   -6.9146   -9.7434 F   0  0  0  0  0  0  0  0  0  0  0  0
   -1.3383   -5.3187   -7.6889 C   0  0  0  0  0  0  0  0  0  0  0  0
   -1.4125   -4.4008   -6.6550 C   0  0  0  0  0  0  0  0  0  0  0  0
   -2.0221   -3.2077   -6.8774 O   0  0  0  0  0  0  0  0  0  0  0  0
   -1.2650   -2.0857   -6.8059 C   0  0  0  0  0  0  0  0  0  0  0  0
   -1.1246   -1.2746   -7.9196 C   0  0  0  0  0  0  0  0  0  0  0  0
   -0.3299   -0.1441   -7.8588 C   0  0  0  0  0  0  0  0  0  0  0  0
    0.3299    0.1824   -6.6877 C   0  0  0  0  0  0  0  0  0  0  0  0
    0.1901   -0.6103   -5.5665 C   0  0  0  0  0  0  0  0  0  0  0  0
   -0.6253   -1.7462   -5.6122 C   0  0  0  0  0  0  0  0  0  0  0  0
   -0.9779   -0.4147   -3.1692 C   0  0  1  0  0  0  0  0  0  0  0  0
   -2.2403    0.0037   -2.3965 C   0  0  2  0  0  0  0  0  0  0  0  0
   -3.1257   -0.2344   -2.9860 H   0  0  0  0  0  0  0  0  0  0  0  0
   -2.1975    1.5077   -2.1188 C   0  0  1  0  0  0  0  0  0  0  0  0
   -3.2561   -1.0963    1.6960 H   0  0  0  0  0  0  0  0  0  0  0  0
   -1.6761   -1.7413    1.1902 H   0  0  0  0  0  0  0  0  0  0  0  0
   -1.7648   -0.2085    2.0906 H   0  0  0  0  0  0  0  0  0  0  0  0
   -2.1560   -2.5874   -0.1388 H   0  0  0  0  0  0  0  0  0  0  0  0
   -3.0922   -2.5965   -1.6562 H   0  0  0  0  0  0  0  0  0  0  0  0
   -0.0636   -2.3827   -1.3425 H   0  0  0  0  0  0  0  0  0  0  0  0
   -0.9837   -3.6914   -2.1297 H   0  0  0  0  0  0  0  0  0  0  0  0
    0.3391   -6.1255   -4.3173 H   0  0  0  0  0  0  0  0  0  0  0  0
    0.4818   -7.7259   -6.1771 H   0  0  0  0  0  0  0  0  0  0  0  0
   -1.8103   -5.1014   -8.6357 H   0  0  0  0  0  0  0  0  0  0  0  0
   -1.6361   -1.5254   -8.8371 H   0  0  0  0  0  0  0  0  0  0  0  0
   -0.2238    0.4862   -8.7295 H   0  0  0  0  0  0  0  0  0  0  0  0
    0.9572    1.0607   -6.6506 H   0  0  0  0  0  0  0  0  0  0  0  0
    0.7077   -0.3521   -4.6545 H   0  0  0  0  0  0  0  0  0  0  0  0
   -0.0929   -0.0200   -2.6700 H   0  0  0  0  0  0  0  0  0  0  0  0
   -1.0292   -0.0291   -4.1874 H   0  0  0  0  0  0  0  0  0  0  0  0
   -2.0569    2.0463   -3.0559 H   0  0  0  0  0  0  0  0  0  0  0  0
   -3.1350    1.8189   -1.6579 H   0  0  0  0  0  0  0  0  0  0  0  0
   -1.3701    1.7292   -1.4447 H   0  0  0  0  0  0  0  0  0  0  0  0
  1  2  1  0
  1 31  1  1
  1 32  1  0
  1 33  1  0
  2  3  2  0
  2  4  1  0
  4 28  1  0
  4  5  1  0
  5  6  1  0
  5 34  1  1
  5 35  1  0
  6  7  1  0
  6 36  1  1
  6 37  1  0
  7  8  1  0
  7 27  1  0
  8 26  1  0
  8  9  2  0
  9 10  1  0
 10 19  2  0
 10 11  1  0
 11 12  2  0
 11 38  1  0
 12 13  1  0
 12 39  1  0
 13 14  1  0
 13 18  2  0
 14 15  1  1
 14 16  1  0
 14 17  1  0
 18 19  1  0
 18 40  1  0
 19 20  1  0
 20 21  1  0
 21 26  2  0
 21 22  1  0
 22 23  2  0
 22 41  1  0
 23 24  1  0
 23 42  1  0
 24 25  2  0
 24 43  1  0
 25 26  1  0
 25 44  1  0
 27 28  1  0
 27 45  1  1
 27 46  1  0
 28 29  1  6
 28 30  1  0
 30 47  1  6
 30 48  1  0
 30 49  1  0
M  END
$$$$
