ZINC000009806361
     RDKit          3D

 56 58  0  0  1  0  0  0  0  0999 V2000
    0.7725    1.3270    1.8428 C   0  0  1  0  0  0  0  0  0  0  0  0
    0.8477    0.0881    0.9881 C   0  0  0  0  0  0  0  0  0  0  0  0
   -0.2781   -0.3636    0.3251 C   0  0  0  0  0  0  0  0  0  0  0  0
   -0.2091   -1.5000   -0.4589 C   0  0  0  0  0  0  0  0  0  0  0  0
   -1.4365   -1.9927   -1.1812 C   0  0  1  0  0  0  0  0  0  0  0  0
    0.9859   -2.1842   -0.5807 C   0  0  0  0  0  0  0  0  0  0  0  0
    1.0739   -3.6324   -1.5806 S   0  0  1  0  0  0  0  0  0  0  0  0
   -0.1316   -4.3499   -1.3545 O   0  0  0  0  0  0  0  0  0  0  0  0
    1.4944   -3.2055   -2.8691 O   0  0  0  0  0  0  0  0  0  0  0  0
    2.2972   -4.5713   -0.9768 N   0  0  0  0  0  0  0  0  0  0  0  0
    3.6617   -4.6628   -1.5272 C   0  0  1  0  0  0  0  0  0  0  0  0
    4.1877   -6.0416   -1.0561 C   0  0  1  0  0  0  0  0  0  0  0  0
    3.5728   -6.1406    0.3649 C   0  0  1  0  0  0  0  0  0  0  0  0
    2.2040   -5.4467    0.2007 C   0  0  1  0  0  0  0  0  0  0  0  0
    1.4266   -6.1937    0.0405 H   0  0  0  0  0  0  0  0  0  0  0  0
    1.8848   -4.6234    1.4501 C   0  0  1  0  0  0  0  0  0  0  0  0
    0.4996   -4.1512    1.3830 N   0  0  0  0  0  0  0  0  0  0  0  0
    0.0259   -3.3156    2.3284 C   0  0  0  0  0  0  0  0  0  0  0  0
    0.7731   -2.8754    3.1801 O   0  0  0  0  0  0  0  0  0  0  0  0
   -1.4026   -2.9345    2.3297 C   0  0  0  0  0  0  0  0  0  0  0  0
   -2.2857   -3.5225    1.4227 C   0  0  0  0  0  0  0  0  0  0  0  0
   -3.6175   -3.1628    1.4295 C   0  0  0  0  0  0  0  0  0  0  0  0
   -4.0783   -2.2210    2.3324 C   0  0  0  0  0  0  0  0  0  0  0  0
   -5.5344   -1.8326    2.3337 C   0  0  1  0  0  0  0  0  0  0  0  0
   -6.2399   -2.6708    3.2037 F   0  0  0  0  0  0  0  0  0  0  0  0
   -5.6627   -0.5057    2.7581 F   0  0  0  0  0  0  0  0  0  0  0  0
   -6.0523   -1.9606    1.0404 F   0  0  0  0  0  0  0  0  0  0  0  0
   -3.2083   -1.6347    3.2343 C   0  0  0  0  0  0  0  0  0  0  0  0
   -1.8751   -1.9894    3.2416 C   0  0  0  0  0  0  0  0  0  0  0  0
    2.1119   -1.7320    0.0815 C   0  0  0  0  0  0  0  0  0  0  0  0
    3.4147   -2.4776   -0.0517 C   0  0  1  0  0  0  0  0  0  0  0  0
    2.0438   -0.5934    0.8624 C   0  0  0  0  0  0  0  0  0  0  0  0
    0.9976    2.2026    1.2340 H   0  0  0  0  0  0  0  0  0  0  0  0
   -0.2308    1.4214    2.2583 H   0  0  0  0  0  0  0  0  0  0  0  0
    1.4964    1.2529    2.6544 H   0  0  0  0  0  0  0  0  0  0  0  0
   -1.2116    0.1711    0.4200 H   0  0  0  0  0  0  0  0  0  0  0  0
   -1.5076   -1.5031   -2.1525 H   0  0  0  0  0  0  0  0  0  0  0  0
   -1.3666   -3.0713   -1.3223 H   0  0  0  0  0  0  0  0  0  0  0  0
   -2.3231   -1.7601   -0.5914 H   0  0  0  0  0  0  0  0  0  0  0  0
    3.6354   -4.6186   -2.6160 H   0  0  0  0  0  0  0  0  0  0  0  0
    4.2858   -3.8626   -1.1292 H   0  0  0  0  0  0  0  0  0  0  0  0
    3.8180   -6.8410   -1.6984 H   0  0  0  0  0  0  0  0  0  0  0  0
    5.2768   -6.0501   -1.0120 H   0  0  0  0  0  0  0  0  0  0  0  0
    3.4467   -7.1827    0.6588 H   0  0  0  0  0  0  0  0  0  0  0  0
    4.1875   -5.6063    1.0892 H   0  0  0  0  0  0  0  0  0  0  0  0
    2.0146   -5.2437    2.3369 H   0  0  0  0  0  0  0  0  0  0  0  0
    2.5581   -3.7679    1.5033 H   0  0  0  0  0  0  0  0  0  0  0  0
   -0.0767   -4.4400    0.6581 H   0  0  0  0  0  0  0  0  0  0  0  0
   -1.9271   -4.2572    0.7170 H   0  0  0  0  0  0  0  0  0  0  0  0
   -4.3019   -3.6170    0.7283 H   0  0  0  0  0  0  0  0  0  0  0  0
   -3.5744   -0.9005    3.9367 H   0  0  0  0  0  0  0  0  0  0  0  0
   -1.1970   -1.5313    3.9464 H   0  0  0  0  0  0  0  0  0  0  0  0
    3.8283   -2.3115   -1.0464 H   0  0  0  0  0  0  0  0  0  0  0  0
    4.1180   -2.1172    0.6990 H   0  0  0  0  0  0  0  0  0  0  0  0
    3.2401   -3.5433    0.0959 H   0  0  0  0  0  0  0  0  0  0  0  0
    2.9235   -0.2401    1.3798 H   0  0  0  0  0  0  0  0  0  0  0  0
  1  2  1  0
  1 33  1  6
  1 34  1  0
  1 35  1  0
  2 32  2  0
  2  3  1  0
  3  4  2  0
  3 36  1  0
  4  5  1  0
  4  6  1  0
  5 37  1  6
  5 38  1  0
  5 39  1  0
  6  7  1  0
  6 30  2  0
  7  8  2  0
  7  9  2  0
  7 10  1  1
 10 14  1  0
 10 11  1  0
 11 12  1  0
 11 40  1  6
 11 41  1  0
 12 13  1  0
 12 42  1  6
 12 43  1  0
 13 14  1  0
 13 44  1  1
 13 45  1  0
 14 15  1  6
 14 16  1  0
 16 17  1  0
 16 46  1  1
 16 47  1  0
 17 18  1  0
 17 48  1  0
 18 19  2  0
 18 20  1  0
 20 29  2  0
 20 21  1  0
 21 22  2  0
 21 49  1  0
 22 23  1  0
 22 50  1  0
 23 24  1  0
 23 28  2  0
 24 25  1  1
 24 26  1  0
 24 27  1  0
 28 29  1  0
 28 51  1  0
 29 52  1  0
 30 31  1  0
 30 32  1  0
 31 53  1  6
 31 54  1  0
 31 55  1  0
 32 56  1  0
M  END
$$$$
