ZINC000008720277
     RDKit          3D

 59 60  0  0  0  0  0  0  0  0999 V2000
   -0.2724    1.8144    0.2198 C   0  0  1  0  0  0  0  0  0  0  0  0
   -0.1407    0.2926    0.3070 C   0  0  1  0  0  0  0  0  0  0  0  0
   -1.4355   -0.3040    0.2099 O   0  0  0  0  0  0  0  0  0  0  0  0
   -1.4961   -1.6614    0.2703 C   0  0  0  0  0  0  0  0  0  0  0  0
   -0.3363   -2.4016    0.4254 C   0  0  0  0  0  0  0  0  0  0  0  0
   -0.3994   -3.7821    0.4872 C   0  0  0  0  0  0  0  0  0  0  0  0
   -1.6184   -4.4267    0.3939 C   0  0  0  0  0  0  0  0  0  0  0  0
   -1.6909   -6.1854    0.4734 S   0  0  1  0  0  0  0  0  0  0  0  0
   -2.8940   -6.5674   -0.1791 O   0  0  0  0  0  0  0  0  0  0  0  0
   -0.4097   -6.6580    0.0803 O   0  0  0  0  0  0  0  0  0  0  0  0
   -1.8723   -6.5970    2.0672 N   0  0  0  0  0  0  0  0  0  0  0  0
   -3.2136   -6.7331    2.6405 C   0  0  1  0  0  0  0  0  0  0  0  0
   -3.6431   -8.2007    2.5906 C   0  0  1  0  0  0  0  0  0  0  0  0
   -0.6915   -6.8251    2.9038 C   0  0  1  0  0  0  0  0  0  0  0  0
   -0.3418   -5.5383    3.6541 C   0  0  1  0  0  0  0  0  0  0  0  0
   -2.7812   -3.6949    0.2389 C   0  0  0  0  0  0  0  0  0  0  0  0
   -2.7262   -2.3103    0.1819 C   0  0  0  0  0  0  0  0  0  0  0  0
   -3.9019   -1.5672    0.0255 N   0  0  0  0  0  0  0  0  0  0  0  0
   -5.3052   -2.0770    0.7418 S   0  0  1  0  0  0  0  0  0  0  0  0
   -6.2664   -1.0556    0.5135 O   0  0  0  0  0  0  0  0  0  0  0  0
   -5.4943   -3.4264    0.3385 O   0  0  0  0  0  0  0  0  0  0  0  0
   -5.0204   -2.1126    2.4803 C   0  0  0  0  0  0  0  0  0  0  0  0
   -4.5335   -3.2603    3.0776 C   0  0  0  0  0  0  0  0  0  0  0  0
   -4.3100   -3.2882    4.4414 C   0  0  0  0  0  0  0  0  0  0  0  0
   -4.5730   -2.1683    5.2080 C   0  0  0  0  0  0  0  0  0  0  0  0
   -4.3299   -2.1989    6.6949 C   0  0  1  0  0  0  0  0  0  0  0  0
   -2.8974   -1.7476    6.9868 C   0  0  1  0  0  0  0  0  0  0  0  0
   -2.6542   -1.7782    8.4738 C   0  0  0  0  0  0  0  0  0  0  0  0
   -3.5442   -2.1285    9.2299 O   0  0  0  0  0  0  0  0  0  0  0  0
   -1.5676   -1.4527    8.9206 O   0  0  0  0  0  0  0  0  0  0  0  0
   -5.0586   -1.0202    4.6105 C   0  0  0  0  0  0  0  0  0  0  0  0
   -5.2784   -0.9911    3.2461 C   0  0  0  0  0  0  0  0  0  0  0  0
    0.7153    2.2695    0.2940 H   0  0  0  0  0  0  0  0  0  0  0  0
   -0.7269    2.0858   -0.7330 H   0  0  0  0  0  0  0  0  0  0  0  0
   -0.8995    2.1722    1.0364 H   0  0  0  0  0  0  0  0  0  0  0  0
    0.4864   -0.0652   -0.5096 H   0  0  0  0  0  0  0  0  0  0  0  0
    0.3138    0.0213    1.2599 H   0  0  0  0  0  0  0  0  0  0  0  0
    0.6180   -1.9011    0.4979 H   0  0  0  0  0  0  0  0  0  0  0  0
    0.5063   -4.3577    0.6082 H   0  0  0  0  0  0  0  0  0  0  0  0
   -3.2024   -6.3927    3.6759 H   0  0  0  0  0  0  0  0  0  0  0  0
   -3.9168   -6.1291    2.0671 H   0  0  0  0  0  0  0  0  0  0  0  0
   -4.6410   -8.3020    3.0172 H   0  0  0  0  0  0  0  0  0  0  0  0
   -3.6543   -8.5411    1.5552 H   0  0  0  0  0  0  0  0  0  0  0  0
   -2.9399   -8.8047    3.1641 H   0  0  0  0  0  0  0  0  0  0  0  0
   -0.9023   -7.6181    3.6213 H   0  0  0  0  0  0  0  0  0  0  0  0
    0.1486   -7.1184    2.2744 H   0  0  0  0  0  0  0  0  0  0  0  0
   -0.1311   -4.7453    2.9366 H   0  0  0  0  0  0  0  0  0  0  0  0
   -1.1820   -5.2450    4.2835 H   0  0  0  0  0  0  0  0  0  0  0  0
    0.5367   -5.7080    4.2765 H   0  0  0  0  0  0  0  0  0  0  0  0
   -3.7325   -4.2011    0.1663 H   0  0  0  0  0  0  0  0  0  0  0  0
   -3.8947   -0.7535   -0.5025 H   0  0  0  0  0  0  0  0  0  0  0  0
   -4.3281   -4.1352    2.4787 H   0  0  0  0  0  0  0  0  0  0  0  0
   -3.9303   -4.1851    4.9082 H   0  0  0  0  0  0  0  0  0  0  0  0
   -5.0306   -1.5278    7.1916 H   0  0  0  0  0  0  0  0  0  0  0  0
   -4.4738   -3.2137    7.0658 H   0  0  0  0  0  0  0  0  0  0  0  0
   -2.1967   -2.4188    6.4902 H   0  0  0  0  0  0  0  0  0  0  0  0
   -2.7535   -0.7328    6.6160 H   0  0  0  0  0  0  0  0  0  0  0  0
   -5.2637   -0.1452    5.2093 H   0  0  0  0  0  0  0  0  0  0  0  0
   -5.6578   -0.0941    2.7793 H   0  0  0  0  0  0  0  0  0  0  0  0
  1  2  1  0
  1 33  1  1
  1 34  1  0
  1 35  1  0
  2  3  1  0
  2 36  1  6
  2 37  1  0
  3  4  1  0
  4 17  2  0
  4  5  1  0
  5  6  2  0
  5 38  1  0
  6  7  1  0
  6 39  1  0
  7  8  1  0
  7 16  2  0
  8  9  2  0
  8 10  2  0
  8 11  1  1
 11 12  1  0
 11 14  1  0
 12 13  1  0
 12 40  1  1
 12 41  1  0
 13 42  1  1
 13 43  1  0
 13 44  1  0
 14 15  1  0
 14 45  1  1
 14 46  1  0
 15 47  1  6
 15 48  1  0
 15 49  1  0
 16 17  1  0
 16 50  1  0
 17 18  1  0
 19 18  1  6
 18 51  1  0
 19 20  2  0
 19 21  2  0
 19 22  1  0
 22 32  2  0
 22 23  1  0
 23 24  2  0
 23 52  1  0
 24 25  1  0
 24 53  1  0
 25 26  1  0
 25 31  2  0
 26 27  1  0
 26 54  1  1
 26 55  1  0
 27 28  1  0
 27 56  1  6
 27 57  1  0
 28 29  2  0
 28 30  1  0
 31 32  1  0
 31 58  1  0
 32 59  1  0
M  END
$$$$
