ZINC000065364734
     RDKit          3D

 46 47  0  0  1  0  0  0  0  0999 V2000
    0.0621    1.0956   -0.5962 C   0  0  1  0  0  0  0  0  0  0  0  0
    0.1714   -0.3051    0.0097 C   0  0  2  0  0  0  0  0  0  0  0  0
    0.6911   -0.2478    0.9661 H   0  0  0  0  0  0  0  0  0  0  0  0
    0.9416   -1.1991   -0.9277 C   0  0  0  0  0  0  0  0  0  0  0  0
    0.3499   -1.9685   -1.6550 O   0  0  0  0  0  0  0  0  0  0  0  0
    2.2879   -1.1437   -0.9578 N   0  0  0  0  0  0  0  0  0  0  0  0
    3.0151   -0.1622   -0.1414 C   0  0  1  0  0  0  0  0  0  0  0  0
    4.0572   -0.9002    0.7049 C   0  0  1  0  0  0  0  0  0  0  0  0
    4.9499   -1.7407   -0.2111 C   0  0  1  0  0  0  0  0  0  0  0  0
    4.0978   -2.7803   -0.9427 C   0  0  1  0  0  0  0  0  0  0  0  0
    3.0564   -2.0676   -1.8030 C   0  0  1  0  0  0  0  0  0  0  0  0
   -1.1711   -0.8543    0.2155 N   0  0  0  0  0  0  0  0  0  0  0  0
   -2.0287   -1.0288   -0.8730 C   0  0  0  0  0  0  0  0  0  0  0  0
   -2.4082   -2.3069   -1.2622 C   0  0  0  0  0  0  0  0  0  0  0  0
   -3.2569   -2.4759   -2.3388 C   0  0  0  0  0  0  0  0  0  0  0  0
   -3.7284   -1.3745   -3.0289 C   0  0  0  0  0  0  0  0  0  0  0  0
   -3.3521   -0.1004   -2.6443 C   0  0  0  0  0  0  0  0  0  0  0  0
   -3.8686    1.0971   -3.3995 C   0  0  1  0  0  0  0  0  0  0  0  0
   -4.7033    0.6694   -4.4375 F   0  0  0  0  0  0  0  0  0  0  0  0
   -4.5910    1.9210   -2.5296 F   0  0  0  0  0  0  0  0  0  0  0  0
   -2.7911    1.8128   -3.9324 F   0  0  0  0  0  0  0  0  0  0  0  0
   -2.5086    0.0760   -1.5654 C   0  0  0  0  0  0  0  0  0  0  0  0
   -1.6718   -1.2682    1.7388 S   0  0  1  0  0  0  0  0  0  0  0  0
   -2.5326    0.2074    2.3488 C   0  0  1  0  0  0  0  0  0  0  0  0
   -2.5914   -2.3308    1.5287 O   0  0  0  0  0  0  0  0  0  0  0  0
   -0.4651   -1.4754    2.4601 O   0  0  0  0  0  0  0  0  0  0  0  0
   -0.3332    1.0233   -1.6094 H   0  0  0  0  0  0  0  0  0  0  0  0
   -0.6073    1.7035    0.0125 H   0  0  0  0  0  0  0  0  0  0  0  0
    1.0489    1.5578   -0.6233 H   0  0  0  0  0  0  0  0  0  0  0  0
    3.5146    0.5557   -0.7919 H   0  0  0  0  0  0  0  0  0  0  0  0
    2.3159    0.3589    0.5126 H   0  0  0  0  0  0  0  0  0  0  0  0
    4.6681   -0.1755    1.2431 H   0  0  0  0  0  0  0  0  0  0  0  0
    3.5518   -1.5516    1.4178 H   0  0  0  0  0  0  0  0  0  0  0  0
    5.4359   -1.0917   -0.9396 H   0  0  0  0  0  0  0  0  0  0  0  0
    5.7079   -2.2476    0.3861 H   0  0  0  0  0  0  0  0  0  0  0  0
    4.7376   -3.3937   -1.5771 H   0  0  0  0  0  0  0  0  0  0  0  0
    3.5920   -3.4139   -0.2142 H   0  0  0  0  0  0  0  0  0  0  0  0
    2.3852   -2.8023   -2.2477 H   0  0  0  0  0  0  0  0  0  0  0  0
    3.5568   -1.5033   -2.5900 H   0  0  0  0  0  0  0  0  0  0  0  0
   -2.0400   -3.1677   -0.7238 H   0  0  0  0  0  0  0  0  0  0  0  0
   -3.5521   -3.4695   -2.6422 H   0  0  0  0  0  0  0  0  0  0  0  0
   -4.3919   -1.5094   -3.8704 H   0  0  0  0  0  0  0  0  0  0  0  0
   -2.2151    1.0712   -1.2656 H   0  0  0  0  0  0  0  0  0  0  0  0
   -3.4542    0.3498    1.7844 H   0  0  0  0  0  0  0  0  0  0  0  0
   -2.7695    0.0792    3.4050 H   0  0  0  0  0  0  0  0  0  0  0  0
   -1.8914    1.0799    2.2236 H   0  0  0  0  0  0  0  0  0  0  0  0
  1  2  1  0
  1 27  1  6
  1 28  1  0
  1 29  1  0
  2  3  1  1
  2  4  1  0
  2 12  1  0
  4  5  2  0
  4  6  1  0
  6 11  1  0
  6  7  1  0
  7  8  1  0
  7 30  1  6
  7 31  1  0
  8  9  1  0
  8 32  1  1
  8 33  1  0
  9 10  1  0
  9 34  1  6
  9 35  1  0
 10 11  1  0
 10 36  1  6
 10 37  1  0
 11 38  1  6
 11 39  1  0
 12 13  1  0
 23 12  1  6
 13 22  2  0
 13 14  1  0
 14 15  2  0
 14 40  1  0
 15 16  1  0
 15 41  1  0
 16 17  2  0
 16 42  1  0
 17 18  1  0
 17 22  1  0
 18 19  1  6
 18 20  1  0
 18 21  1  0
 22 43  1  0
 23 24  1  0
 23 25  2  0
 23 26  2  0
 24 44  1  6
 24 45  1  0
 24 46  1  0
M  END
$$$$
