ZINC000004694954
     RDKit          3D

 50 51  0  0  0  0  0  0  0  0999 V2000
   -0.0173    1.4248    0.0099 C   0  0  1  0  0  0  0  0  0  0  0  0
    0.0021   -0.0041    0.0020 O   0  0  0  0  0  0  0  0  0  0  0  0
    0.6734   -0.5824    1.1231 C   0  0  1  0  0  0  0  0  0  0  0  0
    0.6327   -2.1077    1.0107 C   0  0  1  0  0  0  0  0  0  0  0  0
    1.4013   -2.5316   -0.1622 N   0  0  0  0  0  0  0  0  0  0  0  0
    1.5054   -3.8414   -0.4623 C   0  0  0  0  0  0  0  0  0  0  0  0
    0.9628   -4.6691    0.2386 O   0  0  0  0  0  0  0  0  0  0  0  0
    2.2961   -4.2775   -1.6689 C   0  0  1  0  0  0  0  0  0  0  0  0
    2.2571   -5.7380   -1.7765 N   0  0  0  0  0  0  0  0  0  0  0  0
    1.1335   -6.3930   -2.4509 C   0  0  1  0  0  0  0  0  0  0  0  0
    1.3975   -6.4356   -3.9573 C   0  0  1  0  0  0  0  0  0  0  0  0
    0.2417   -7.1094   -4.6510 C   0  0  0  0  0  0  0  0  0  0  0  0
    0.2517   -8.4789   -4.8390 C   0  0  0  0  0  0  0  0  0  0  0  0
   -0.8084   -9.0970   -5.4753 C   0  0  0  0  0  0  0  0  0  0  0  0
   -1.8789   -8.3457   -5.9231 C   0  0  0  0  0  0  0  0  0  0  0  0
   -1.8894   -6.9764   -5.7342 C   0  0  0  0  0  0  0  0  0  0  0  0
   -0.8312   -6.3588   -5.0941 C   0  0  0  0  0  0  0  0  0  0  0  0
    3.4831   -6.6485   -1.1360 S   0  0  1  0  0  0  0  0  0  0  0  0
    3.5746   -7.8186   -1.9370 O   0  0  0  0  0  0  0  0  0  0  0  0
    4.5741   -5.7623   -0.9272 O   0  0  0  0  0  0  0  0  0  0  0  0
    2.9598   -7.1783    0.4609 C   0  0  0  0  0  0  0  0  0  0  0  0
    3.2283   -6.3985    1.5702 C   0  0  0  0  0  0  0  0  0  0  0  0
    2.8178   -6.8141    2.8231 C   0  0  0  0  0  0  0  0  0  0  0  0
    2.1384   -8.0094    2.9665 C   0  0  0  0  0  0  0  0  0  0  0  0
    1.8690   -8.7888    1.8570 C   0  0  0  0  0  0  0  0  0  0  0  0
    2.2758   -8.3710    0.6037 C   0  0  0  0  0  0  0  0  0  0  0  0
    1.0053    1.8021    0.0021 H   0  0  0  0  0  0  0  0  0  0  0  0
   -0.5445    1.7859   -0.8732 H   0  0  0  0  0  0  0  0  0  0  0  0
   -0.5275    1.7763    0.9067 H   0  0  0  0  0  0  0  0  0  0  0  0
    1.7103   -0.2468    1.1385 H   0  0  0  0  0  0  0  0  0  0  0  0
    0.1775   -0.2725    2.0430 H   0  0  0  0  0  0  0  0  0  0  0  0
    1.0656   -2.5499    1.9080 H   0  0  0  0  0  0  0  0  0  0  0  0
   -0.4012   -2.4369    0.9060 H   0  0  0  0  0  0  0  0  0  0  0  0
    1.8353   -1.8696   -0.7228 H   0  0  0  0  0  0  0  0  0  0  0  0
    1.8631   -3.8353   -2.5662 H   0  0  0  0  0  0  0  0  0  0  0  0
    3.3299   -3.9483   -1.5642 H   0  0  0  0  0  0  0  0  0  0  0  0
    1.0250   -7.4094   -2.0721 H   0  0  0  0  0  0  0  0  0  0  0  0
    0.2180   -5.8338   -2.2581 H   0  0  0  0  0  0  0  0  0  0  0  0
    1.5060   -5.4193   -4.3360 H   0  0  0  0  0  0  0  0  0  0  0  0
    2.3130   -6.9949   -4.1501 H   0  0  0  0  0  0  0  0  0  0  0  0
    1.0881   -9.0659   -4.4892 H   0  0  0  0  0  0  0  0  0  0  0  0
   -0.8002  -10.1668   -5.6229 H   0  0  0  0  0  0  0  0  0  0  0  0
   -2.7069   -8.8285   -6.4208 H   0  0  0  0  0  0  0  0  0  0  0  0
   -2.7256   -6.3893   -6.0844 H   0  0  0  0  0  0  0  0  0  0  0  0
   -0.8394   -5.2890   -4.9466 H   0  0  0  0  0  0  0  0  0  0  0  0
    3.7592   -5.4646    1.4582 H   0  0  0  0  0  0  0  0  0  0  0  0
    3.0282   -6.2052    3.6899 H   0  0  0  0  0  0  0  0  0  0  0  0
    1.8182   -8.3345    3.9454 H   0  0  0  0  0  0  0  0  0  0  0  0
    1.3385   -9.7228    1.9691 H   0  0  0  0  0  0  0  0  0  0  0  0
    2.0654   -8.9799   -0.2632 H   0  0  0  0  0  0  0  0  0  0  0  0
  1  2  1  0
  1 27  1  6
  1 28  1  0
  1 29  1  0
  2  3  1  0
  3  4  1  0
  3 30  1  1
  3 31  1  0
  4  5  1  0
  4 32  1  1
  4 33  1  0
  5  6  1  0
  5 34  1  0
  6  7  2  0
  6  8  1  0
  8  9  1  0
  8 35  1  6
  8 36  1  0
  9 10  1  0
 18  9  1  6
 10 11  1  0
 10 37  1  1
 10 38  1  0
 11 12  1  0
 11 39  1  6
 11 40  1  0
 12 17  2  0
 12 13  1  0
 13 14  2  0
 13 41  1  0
 14 15  1  0
 14 42  1  0
 15 16  2  0
 15 43  1  0
 16 17  1  0
 16 44  1  0
 17 45  1  0
 18 19  2  0
 18 20  2  0
 18 21  1  0
 21 26  2  0
 21 22  1  0
 22 23  2  0
 22 46  1  0
 23 24  1  0
 23 47  1  0
 24 25  2  0
 24 48  1  0
 25 26  1  0
 25 49  1  0
 26 50  1  0
M  END
$$$$
