ZINC000408609229
     RDKit          3D

 62 64  0  0  1  0  0  0  0  0999 V2000
   -0.0184    1.5028    0.0103 C   0  0  1  0  0  0  0  0  0  0  0  0
    0.0021   -0.0041    0.0020 C   0  0  0  0  0  0  0  0  0  0  0  0
    0.0057   -0.6887   -1.1989 C   0  0  0  0  0  0  0  0  0  0  0  0
    0.0245   -2.0709   -1.2065 C   0  0  0  0  0  0  0  0  0  0  0  0
    0.0400   -2.7685   -0.0132 C   0  0  0  0  0  0  0  0  0  0  0  0
    0.0600   -4.2753   -0.0215 C   0  0  1  0  0  0  0  0  0  0  0  0
    1.4475   -4.7453   -0.0315 N   0  0  0  0  0  0  0  0  0  0  0  0
    2.1835   -4.8824    1.2278 C   0  0  1  0  0  0  0  0  0  0  0  0
    1.8847   -6.2264    1.8405 C   0  0  0  0  0  0  0  0  0  0  0  0
    1.1311   -6.9941    1.2805 O   0  0  0  0  0  0  0  0  0  0  0  0
    2.4548   -6.5752    3.0108 N   0  0  0  0  0  0  0  0  0  0  0  0
    2.1643   -7.8817    3.6065 C   0  0  2  0  0  0  0  0  0  0  0  0
    2.0401   -8.6219    2.8160 H   0  0  0  0  0  0  0  0  0  0  0  0
    0.8770   -7.7926    4.4285 C   0  0  1  0  0  0  0  0  0  0  0  0
    3.3225   -8.2964    4.5161 C   0  0  1  0  0  0  0  0  0  0  0  0
    4.5824   -8.5067    3.6739 C   0  0  1  0  0  0  0  0  0  0  0  0
    5.7232   -8.9152    4.5698 C   0  0  0  0  0  0  0  0  0  0  0  0
    6.5362   -7.9515    5.1365 C   0  0  0  0  0  0  0  0  0  0  0  0
    7.5827   -8.3262    5.9584 C   0  0  0  0  0  0  0  0  0  0  0  0
    7.8159   -9.6645    6.2138 C   0  0  0  0  0  0  0  0  0  0  0  0
    7.0023  -10.6282    5.6478 C   0  0  0  0  0  0  0  0  0  0  0  0
    5.9533  -10.2533    4.8294 C   0  0  0  0  0  0  0  0  0  0  0  0
    2.1840   -5.1215   -1.4662 S   0  0  1  0  0  0  0  0  0  0  0  0
    3.1329   -6.1386   -1.1755 O   0  0  0  0  0  0  0  0  0  0  0  0
    1.1441   -5.2789   -2.4218 O   0  0  0  0  0  0  0  0  0  0  0  0
    3.1081   -3.7066   -1.9649 C   0  0  0  0  0  0  0  0  0  0  0  0
    2.5164   -2.7371   -2.7527 C   0  0  0  0  0  0  0  0  0  0  0  0
    3.2414   -1.6271   -3.1440 C   0  0  0  0  0  0  0  0  0  0  0  0
    4.5580   -1.4863   -2.7470 C   0  0  0  0  0  0  0  0  0  0  0  0
    5.1495   -2.4554   -1.9584 C   0  0  0  0  0  0  0  0  0  0  0  0
    4.4231   -3.5634   -1.5636 C   0  0  0  0  0  0  0  0  0  0  0  0
    0.0378   -2.0839    1.1877 C   0  0  0  0  0  0  0  0  0  0  0  0
    0.0229   -0.7016    1.1953 C   0  0  0  0  0  0  0  0  0  0  0  0
    1.0042    1.8801    0.0026 H   0  0  0  0  0  0  0  0  0  0  0  0
   -0.5455    1.8639   -0.8728 H   0  0  0  0  0  0  0  0  0  0  0  0
   -0.5286    1.8543    0.9071 H   0  0  0  0  0  0  0  0  0  0  0  0
   -0.0064   -0.1436   -2.1312 H   0  0  0  0  0  0  0  0  0  0  0  0
    0.0266   -2.6057   -2.1448 H   0  0  0  0  0  0  0  0  0  0  0  0
   -0.4442   -4.6502    0.8692 H   0  0  0  0  0  0  0  0  0  0  0  0
   -0.4538   -4.6406   -0.9107 H   0  0  0  0  0  0  0  0  0  0  0  0
    3.2531   -4.8011    1.0342 H   0  0  0  0  0  0  0  0  0  0  0  0
    1.8777   -4.0936    1.9151 H   0  0  0  0  0  0  0  0  0  0  0  0
    3.0575   -5.9612    3.4588 H   0  0  0  0  0  0  0  0  0  0  0  0
    0.0518   -7.4971    3.7805 H   0  0  0  0  0  0  0  0  0  0  0  0
    0.6608   -8.7647    4.8717 H   0  0  0  0  0  0  0  0  0  0  0  0
    1.0012   -7.0524    5.2190 H   0  0  0  0  0  0  0  0  0  0  0  0
    3.5043   -7.5137    5.2526 H   0  0  0  0  0  0  0  0  0  0  0  0
    3.0684   -9.2248    5.0277 H   0  0  0  0  0  0  0  0  0  0  0  0
    4.4006   -9.2894    2.9374 H   0  0  0  0  0  0  0  0  0  0  0  0
    4.8366   -7.5784    3.1623 H   0  0  0  0  0  0  0  0  0  0  0  0
    6.3540   -6.9058    4.9369 H   0  0  0  0  0  0  0  0  0  0  0  0
    8.2183   -7.5733    6.4006 H   0  0  0  0  0  0  0  0  0  0  0  0
    8.6339   -9.9573    6.8553 H   0  0  0  0  0  0  0  0  0  0  0  0
    7.1847  -11.6739    5.8472 H   0  0  0  0  0  0  0  0  0  0  0  0
    5.3176  -11.0062    4.3872 H   0  0  0  0  0  0  0  0  0  0  0  0
    1.4877   -2.8470   -3.0629 H   0  0  0  0  0  0  0  0  0  0  0  0
    2.7793   -0.8699   -3.7601 H   0  0  0  0  0  0  0  0  0  0  0  0
    5.1246   -0.6194   -3.0532 H   0  0  0  0  0  0  0  0  0  0  0  0
    6.1782   -2.3457   -1.6485 H   0  0  0  0  0  0  0  0  0  0  0  0
    4.8852   -4.3205   -0.9474 H   0  0  0  0  0  0  0  0  0  0  0  0
    0.0503   -2.6289    2.1200 H   0  0  0  0  0  0  0  0  0  0  0  0
    0.0211   -0.1667    2.1335 H   0  0  0  0  0  0  0  0  0  0  0  0
  1  2  1  0
  1 34  1  6
  1 35  1  0
  1 36  1  0
  2 33  2  0
  2  3  1  0
  3  4  2  0
  3 37  1  0
  4  5  1  0
  4 38  1  0
  5  6  1  0
  5 32  2  0
  6  7  1  0
  6 39  1  1
  6 40  1  0
  7  8  1  0
 23  7  1  1
  8  9  1  0
  8 41  1  6
  8 42  1  0
  9 10  2  0
  9 11  1  0
 11 12  1  0
 11 43  1  0
 12 13  1  6
 12 14  1  0
 12 15  1  0
 14 44  1  6
 14 45  1  0
 14 46  1  0
 15 16  1  0
 15 47  1  1
 15 48  1  0
 16 17  1  0
 16 49  1  6
 16 50  1  0
 17 22  2  0
 17 18  1  0
 18 19  2  0
 18 51  1  0
 19 20  1  0
 19 52  1  0
 20 21  2  0
 20 53  1  0
 21 22  1  0
 21 54  1  0
 22 55  1  0
 23 24  2  0
 23 25  2  0
 23 26  1  0
 26 31  2  0
 26 27  1  0
 27 28  2  0
 27 56  1  0
 28 29  1  0
 28 57  1  0
 29 30  2  0
 29 58  1  0
 30 31  1  0
 30 59  1  0
 31 60  1  0
 32 33  1  0
 32 61  1  0
 33 62  1  0
M  END
$$$$
