ZINC000004616497
     RDKit          3D

 54 56  0  0  1  0  0  0  0  0999 V2000
   -0.0184    1.5028    0.0103 C   0  0  1  0  0  0  0  0  0  0  0  0
    0.0021   -0.0041    0.0020 C   0  0  0  0  0  0  0  0  0  0  0  0
    0.0057   -0.6887   -1.1989 C   0  0  0  0  0  0  0  0  0  0  0  0
    0.0245   -2.0709   -1.2065 C   0  0  0  0  0  0  0  0  0  0  0  0
    0.0400   -2.7685   -0.0132 C   0  0  0  0  0  0  0  0  0  0  0  0
    0.0633   -4.5303   -0.0229 S   0  0  1  0  0  0  0  0  0  0  0  0
   -0.4690   -4.9455    1.2275 O   0  0  0  0  0  0  0  0  0  0  0  0
   -0.4824   -4.9319   -1.2719 O   0  0  0  0  0  0  0  0  0  0  0  0
    1.6514   -4.9995   -0.0340 N   0  0  0  0  0  0  0  0  0  0  0  0
    2.3607   -5.2139    1.2298 C   0  0  1  0  0  0  0  0  0  0  0  0
    2.3054   -6.6748    1.5953 C   0  0  0  0  0  0  0  0  0  0  0  0
    1.7301   -7.4597    0.8714 O   0  0  0  0  0  0  0  0  0  0  0  0
    2.8952   -7.1093    2.7267 N   0  0  0  0  0  0  0  0  0  0  0  0
    2.8414   -8.5295    3.0820 C   0  0  1  0  0  0  0  0  0  0  0  0
    3.5821   -8.7534    4.4018 C   0  0  1  0  0  0  0  0  0  0  0  0
    3.1279   -8.1599    5.1953 H   0  0  0  0  0  0  0  0  0  0  0  0
    3.5672  -10.2563    4.7787 C   0  0  1  0  0  0  0  0  0  0  0  0
    4.8278  -10.3465    5.6812 C   0  0  1  0  0  0  0  0  0  0  0  0
    5.7758   -9.3209    5.0233 C   0  0  1  0  0  0  0  0  0  0  0  0
    4.9705   -8.4144    4.2581 O   0  0  0  0  0  0  0  0  0  0  0  0
    2.3471   -5.2001   -1.3075 C   0  0  1  0  0  0  0  0  0  0  0  0
    3.0899   -3.9422   -1.6778 C   0  0  0  0  0  0  0  0  0  0  0  0
    2.5474   -3.0643   -2.5967 C   0  0  0  0  0  0  0  0  0  0  0  0
    3.2287   -1.9102   -2.9366 C   0  0  0  0  0  0  0  0  0  0  0  0
    4.4532   -1.6334   -2.3582 C   0  0  0  0  0  0  0  0  0  0  0  0
    4.9980   -2.5103   -1.4392 C   0  0  0  0  0  0  0  0  0  0  0  0
    4.3137   -3.6629   -1.0931 C   0  0  0  0  0  0  0  0  0  0  0  0
    4.8453   -4.5207   -0.1949 F   0  0  0  0  0  0  0  0  0  0  0  0
    0.0378   -2.0839    1.1877 C   0  0  0  0  0  0  0  0  0  0  0  0
    0.0229   -0.7016    1.1953 C   0  0  0  0  0  0  0  0  0  0  0  0
    1.0042    1.8801    0.0026 H   0  0  0  0  0  0  0  0  0  0  0  0
   -0.5455    1.8639   -0.8728 H   0  0  0  0  0  0  0  0  0  0  0  0
   -0.5286    1.8543    0.9071 H   0  0  0  0  0  0  0  0  0  0  0  0
   -0.0064   -0.1436   -2.1312 H   0  0  0  0  0  0  0  0  0  0  0  0
    0.0266   -2.6057   -2.1448 H   0  0  0  0  0  0  0  0  0  0  0  0
    3.4005   -4.9060    1.1197 H   0  0  0  0  0  0  0  0  0  0  0  0
    1.8886   -4.6246    2.0159 H   0  0  0  0  0  0  0  0  0  0  0  0
    3.3552   -6.4816    3.3056 H   0  0  0  0  0  0  0  0  0  0  0  0
    1.8016   -8.8374    3.1921 H   0  0  0  0  0  0  0  0  0  0  0  0
    3.3134   -9.1188    2.2959 H   0  0  0  0  0  0  0  0  0  0  0  0
    2.6660  -10.5127    5.3357 H   0  0  0  0  0  0  0  0  0  0  0  0
    3.6718  -10.8842    3.8938 H   0  0  0  0  0  0  0  0  0  0  0  0
    4.5932  -10.0565    6.7054 H   0  0  0  0  0  0  0  0  0  0  0  0
    5.2571  -11.3478    5.6491 H   0  0  0  0  0  0  0  0  0  0  0  0
    6.3182   -8.7719    5.7930 H   0  0  0  0  0  0  0  0  0  0  0  0
    6.4796   -9.8348    4.3686 H   0  0  0  0  0  0  0  0  0  0  0  0
    3.0540   -6.0240   -1.2095 H   0  0  0  0  0  0  0  0  0  0  0  0
    1.6206   -5.4353   -2.0853 H   0  0  0  0  0  0  0  0  0  0  0  0
    1.5910   -3.2799   -3.0498 H   0  0  0  0  0  0  0  0  0  0  0  0
    2.8039   -1.2246   -3.6549 H   0  0  0  0  0  0  0  0  0  0  0  0
    4.9846   -0.7317   -2.6248 H   0  0  0  0  0  0  0  0  0  0  0  0
    5.9551   -2.2941   -0.9879 H   0  0  0  0  0  0  0  0  0  0  0  0
    0.0503   -2.6289    2.1200 H   0  0  0  0  0  0  0  0  0  0  0  0
    0.0211   -0.1667    2.1335 H   0  0  0  0  0  0  0  0  0  0  0  0
  1  2  1  0
  1 31  1  6
  1 32  1  0
  1 33  1  0
  2 30  2  0
  2  3  1  0
  3  4  2  0
  3 34  1  0
  4  5  1  0
  4 35  1  0
  5  6  1  0
  5 29  2  0
  6  7  2  0
  6  8  2  0
  6  9  1  6
  9 10  1  0
  9 21  1  0
 10 11  1  0
 10 36  1  6
 10 37  1  0
 11 12  2  0
 11 13  1  0
 13 14  1  0
 13 38  1  0
 14 15  1  0
 14 39  1  1
 14 40  1  0
 15 16  1  1
 15 20  1  0
 15 17  1  0
 17 18  1  0
 17 41  1  1
 17 42  1  0
 18 19  1  0
 18 43  1  1
 18 44  1  0
 19 20  1  0
 19 45  1  1
 19 46  1  0
 21 22  1  0
 21 47  1  1
 21 48  1  0
 22 27  2  0
 22 23  1  0
 23 24  2  0
 23 49  1  0
 24 25  1  0
 24 50  1  0
 25 26  2  0
 25 51  1  0
 26 27  1  0
 26 52  1  0
 27 28  1  0
 29 30  1  0
 29 53  1  0
 30 54  1  0
M  END
$$$$
