ZINC000048309072
     RDKit          3D

 41 43  0  0  1  0  0  0  0  0999 V2000
    0.5718    0.2425   -1.3331 N   0  0  0  0  0  0  0  0  0  0  0  0
    0.0014   -0.0015   -0.1366 C   0  0  0  0  0  0  0  0  0  0  0  0
    0.5291    0.3983    0.8796 O   0  0  0  0  0  0  0  0  0  0  0  0
   -1.2920   -0.7713   -0.0614 C   0  0  2  0  0  0  0  0  0  0  0  0
   -1.9346   -0.4949   -0.8973 H   0  0  0  0  0  0  0  0  0  0  0  0
   -1.9996   -0.4654    1.2578 C   0  0  1  0  0  0  0  0  0  0  0  0
   -3.1202   -1.4409    1.5037 C   0  0  0  0  0  0  0  0  0  0  0  0
   -4.1129   -1.0689    2.4018 C   0  0  0  0  0  0  0  0  0  0  0  0
   -5.1626   -1.9197    2.6798 C   0  0  0  0  0  0  0  0  0  0  0  0
   -5.2290   -3.1544    2.0619 C   0  0  0  0  0  0  0  0  0  0  0  0
   -4.2462   -3.5252    1.1669 C   0  0  0  0  0  0  0  0  0  0  0  0
   -3.1928   -2.6676    0.8819 C   0  0  0  0  0  0  0  0  0  0  0  0
   -2.1672   -3.1234   -0.1253 C   0  0  1  0  0  0  0  0  0  0  0  0
   -1.0146   -2.2166   -0.1029 N   0  0  0  0  0  0  0  0  0  0  0  0
    0.5369   -2.7953   -0.1211 S   0  0  1  0  0  0  0  0  0  0  0  0
    1.3191   -1.8699    0.6212 O   0  0  0  0  0  0  0  0  0  0  0  0
    0.4536   -4.1768    0.2012 O   0  0  0  0  0  0  0  0  0  0  0  0
    1.1074   -2.7063   -1.7858 C   0  0  0  0  0  0  0  0  0  0  0  0
    2.1557   -1.8675   -2.1131 C   0  0  0  0  0  0  0  0  0  0  0  0
    2.6034   -1.7975   -3.4194 C   0  0  0  0  0  0  0  0  0  0  0  0
    3.7467   -0.8825   -3.7757 C   0  0  1  0  0  0  0  0  0  0  0  0
    4.9557   -1.5743   -3.6451 F   0  0  0  0  0  0  0  0  0  0  0  0
    3.5999   -0.4454   -5.0965 F   0  0  0  0  0  0  0  0  0  0  0  0
    3.7458    0.2214   -2.9163 F   0  0  0  0  0  0  0  0  0  0  0  0
    2.0032   -2.5666   -4.3985 C   0  0  0  0  0  0  0  0  0  0  0  0
    0.9545   -3.4061   -4.0722 C   0  0  0  0  0  0  0  0  0  0  0  0
    0.5095   -3.4805   -2.7645 C   0  0  0  0  0  0  0  0  0  0  0  0
   -0.8074   -4.5344   -2.3540 Cl  0  0  0  0  0  0  0  0  0  0  0  0
    1.4043    0.7380   -1.3815 H   0  0  0  0  0  0  0  0  0  0  0  0
    0.1518   -0.0807   -2.1455 H   0  0  0  0  0  0  0  0  0  0  0  0
   -1.2806   -0.5320    2.0742 H   0  0  0  0  0  0  0  0  0  0  0  0
   -2.4060    0.5454    1.2206 H   0  0  0  0  0  0  0  0  0  0  0  0
   -4.0621   -0.1053    2.8868 H   0  0  0  0  0  0  0  0  0  0  0  0
   -5.9303   -1.6220    3.3786 H   0  0  0  0  0  0  0  0  0  0  0  0
   -6.0463   -3.8262    2.2790 H   0  0  0  0  0  0  0  0  0  0  0  0
   -4.2971   -4.4902    0.6846 H   0  0  0  0  0  0  0  0  0  0  0  0
   -1.8395   -4.1331    0.1222 H   0  0  0  0  0  0  0  0  0  0  0  0
   -2.6105   -3.1206   -1.1211 H   0  0  0  0  0  0  0  0  0  0  0  0
    2.6251   -1.2663   -1.3486 H   0  0  0  0  0  0  0  0  0  0  0  0
    2.3534   -2.5115   -5.4186 H   0  0  0  0  0  0  0  0  0  0  0  0
    0.4856   -4.0070   -4.8373 H   0  0  0  0  0  0  0  0  0  0  0  0
  1  2  1  0
  1 29  1  0
  1 30  1  0
  2  3  2  0
  2  4  1  0
  4  5  1  6
  4 14  1  0
  4  6  1  0
  6  7  1  0
  6 31  1  1
  6 32  1  0
  7 12  2  0
  7  8  1  0
  8  9  2  0
  8 33  1  0
  9 10  1  0
  9 34  1  0
 10 11  2  0
 10 35  1  0
 11 12  1  0
 11 36  1  0
 12 13  1  0
 13 14  1  0
 13 37  1  1
 13 38  1  0
 15 14  1  6
 15 16  2  0
 15 17  2  0
 15 18  1  0
 18 27  2  0
 18 19  1  0
 19 20  2  0
 19 39  1  0
 20 21  1  0
 20 25  1  0
 21 22  1  6
 21 23  1  0
 21 24  1  0
 25 26  2  0
 25 40  1  0
 26 27  1  0
 26 41  1  0
 27 28  1  0
M  END
$$$$
