ZINC000016648334
     RDKit          3D

 47 48  0  0  0  0  0  0  0  0999 V2000
   -0.0178    1.4608    0.0101 C   0  0  1  0  0  0  0  0  0  0  0  0
    0.0021   -0.0041    0.0020 N   0  0  0  0  0  0  0  0  0  0  0  0
    0.0241   -0.7433    1.2666 C   0  0  1  0  0  0  0  0  0  0  0  0
   -0.0004   -0.8243   -1.4366 S   0  0  1  0  0  0  0  0  0  0  0  0
   -0.5247   -2.1160   -1.1611 O   0  0  0  0  0  0  0  0  0  0  0  0
   -0.5660    0.0551   -2.3989 O   0  0  0  0  0  0  0  0  0  0  0  0
    1.6816   -1.0597   -1.9056 C   0  0  0  0  0  0  0  0  0  0  0  0
    2.3224   -0.1085   -2.6779 C   0  0  0  0  0  0  0  0  0  0  0  0
    3.6411   -0.2907   -3.0469 C   0  0  0  0  0  0  0  0  0  0  0  0
    4.3226   -1.4291   -2.6417 C   0  0  0  0  0  0  0  0  0  0  0  0
    5.6201   -1.6104   -3.0031 O   0  0  0  0  0  0  0  0  0  0  0  0
    6.2587   -2.8058   -2.5500 C   0  0  1  0  0  0  0  0  0  0  0  0
    7.6821   -2.8332   -3.0443 C   0  0  0  0  0  0  0  0  0  0  0  0
    8.1077   -1.9191   -3.7182 O   0  0  0  0  0  0  0  0  0  0  0  0
    8.4821   -3.8735   -2.7374 N   0  0  0  0  0  0  0  0  0  0  0  0
    9.8658   -3.9002   -3.2179 C   0  0  1  0  0  0  0  0  0  0  0  0
   10.7569   -3.1188   -2.2503 C   0  0  1  0  0  0  0  0  0  0  0  0
   12.2020   -3.1467   -2.7522 C   0  0  1  0  0  0  0  0  0  0  0  0
   12.6857   -4.5959   -2.8337 C   0  0  1  0  0  0  0  0  0  0  0  0
   11.7946   -5.3773   -3.8014 C   0  0  1  0  0  0  0  0  0  0  0  0
   10.3495   -5.3494   -3.2995 C   0  0  1  0  0  0  0  0  0  0  0  0
    3.6776   -2.3818   -1.8665 C   0  0  0  0  0  0  0  0  0  0  0  0
    2.3603   -2.1926   -1.4960 C   0  0  0  0  0  0  0  0  0  0  0  0
    1.0048    1.8381    0.0023 H   0  0  0  0  0  0  0  0  0  0  0  0
   -0.5450    1.8219   -0.8730 H   0  0  0  0  0  0  0  0  0  0  0  0
   -0.5280    1.8123    0.9069 H   0  0  0  0  0  0  0  0  0  0  0  0
   -0.9979   -0.9406    1.5900 H   0  0  0  0  0  0  0  0  0  0  0  0
    0.5496   -1.6879    1.1262 H   0  0  0  0  0  0  0  0  0  0  0  0
    0.5371   -0.1514    2.0246 H   0  0  0  0  0  0  0  0  0  0  0  0
    1.7914    0.7776   -2.9931 H   0  0  0  0  0  0  0  0  0  0  0  0
    4.1409    0.4522   -3.6507 H   0  0  0  0  0  0  0  0  0  0  0  0
    6.2520   -2.8307   -1.4603 H   0  0  0  0  0  0  0  0  0  0  0  0
    5.7231   -3.6729   -2.9365 H   0  0  0  0  0  0  0  0  0  0  0  0
    8.1417   -4.6046   -2.1984 H   0  0  0  0  0  0  0  0  0  0  0  0
    9.9159   -3.4443   -4.2067 H   0  0  0  0  0  0  0  0  0  0  0  0
   10.4123   -2.0864   -2.1922 H   0  0  0  0  0  0  0  0  0  0  0  0
   10.7068   -3.5748   -1.2615 H   0  0  0  0  0  0  0  0  0  0  0  0
   12.2520   -2.6907   -3.7410 H   0  0  0  0  0  0  0  0  0  0  0  0
   12.8368   -2.5900   -2.0628 H   0  0  0  0  0  0  0  0  0  0  0  0
   13.7152   -4.6157   -3.1913 H   0  0  0  0  0  0  0  0  0  0  0  0
   12.6356   -5.0519   -1.8450 H   0  0  0  0  0  0  0  0  0  0  0  0
   11.8447   -4.9213   -4.7902 H   0  0  0  0  0  0  0  0  0  0  0  0
   12.1392   -6.4097   -3.8595 H   0  0  0  0  0  0  0  0  0  0  0  0
   10.2994   -5.8054   -2.3107 H   0  0  0  0  0  0  0  0  0  0  0  0
    9.7147   -5.9061   -3.9889 H   0  0  0  0  0  0  0  0  0  0  0  0
    4.2059   -3.2690   -1.5500 H   0  0  0  0  0  0  0  0  0  0  0  0
    1.8578   -2.9338   -0.8923 H   0  0  0  0  0  0  0  0  0  0  0  0
  1  2  1  0
  1 24  1  6
  1 25  1  0
  1 26  1  0
  2  3  1  0
  4  2  1  1
  3 27  1  1
  3 28  1  0
  3 29  1  0
  4  5  2  0
  4  6  2  0
  4  7  1  0
  7 23  2  0
  7  8  1  0
  8  9  2  0
  8 30  1  0
  9 10  1  0
  9 31  1  0
 10 11  1  0
 10 22  2  0
 11 12  1  0
 12 13  1  0
 12 32  1  1
 12 33  1  0
 13 14  2  0
 13 15  1  0
 15 16  1  0
 15 34  1  0
 16 21  1  0
 16 17  1  0
 16 35  1  6
 17 18  1  0
 17 36  1  1
 17 37  1  0
 18 19  1  0
 18 38  1  6
 18 39  1  0
 19 20  1  0
 19 40  1  6
 19 41  1  0
 20 21  1  0
 20 42  1  6
 20 43  1  0
 21 44  1  1
 21 45  1  0
 22 23  1  0
 22 46  1  0
 23 47  1  0
M  END
$$$$
