ZINC000252477004
     RDKit          3D

 54 56  0  0  1  0  0  0  0  0999 V2000
   -0.6763    1.6860   -0.4120 C   0  0  1  0  0  0  0  0  0  0  0  0
   -0.3864    0.1885   -0.2921 C   0  0  2  0  0  0  0  0  0  0  0  0
    0.1132   -0.1585   -1.1965 H   0  0  0  0  0  0  0  0  0  0  0  0
   -1.7019   -0.5733   -0.1110 C   0  0  1  0  0  0  0  0  0  0  0  0
   -1.3990   -2.0641    0.0685 C   0  0  1  0  0  0  0  0  0  0  0  0
   -2.3270   -2.6050    0.2537 H   0  0  0  0  0  0  0  0  0  0  0  0
   -0.7440   -2.5992   -1.1788 C   0  0  0  0  0  0  0  0  0  0  0  0
   -0.4225   -1.8400   -2.0684 O   0  0  0  0  0  0  0  0  0  0  0  0
   -0.5154   -3.9213   -1.3058 N   0  0  0  0  0  0  0  0  0  0  0  0
   -1.0073   -4.8661   -0.2932 C   0  0  1  0  0  0  0  0  0  0  0  0
   -1.8659   -5.9287   -0.9904 C   0  0  1  0  0  0  0  0  0  0  0  0
   -1.1207   -6.4515   -2.1442 N   0  0  0  0  0  0  0  0  0  0  0  0
   -0.8408   -8.0761   -2.3008 S   0  0  1  0  0  0  0  0  0  0  0  0
    0.3041   -8.2078   -3.1321 O   0  0  0  0  0  0  0  0  0  0  0  0
   -0.9184   -8.6246   -0.9922 O   0  0  0  0  0  0  0  0  0  0  0  0
   -2.1928   -8.7535   -3.2052 C   0  0  0  0  0  0  0  0  0  0  0  0
   -3.3110   -9.2137   -2.5353 C   0  0  0  0  0  0  0  0  0  0  0  0
   -4.3717   -9.7452   -3.2448 C   0  0  0  0  0  0  0  0  0  0  0  0
   -4.3144   -9.8160   -4.6242 C   0  0  0  0  0  0  0  0  0  0  0  0
   -5.4705  -10.3958   -5.3976 C   0  0  1  0  0  0  0  0  0  0  0  0
   -6.3729   -9.3769   -5.7211 F   0  0  0  0  0  0  0  0  0  0  0  0
   -4.9953  -10.9882   -6.5725 F   0  0  0  0  0  0  0  0  0  0  0  0
   -6.1166  -11.3605   -4.6172 F   0  0  0  0  0  0  0  0  0  0  0  0
   -3.1967   -9.3546   -5.2941 C   0  0  0  0  0  0  0  0  0  0  0  0
   -2.1376   -8.8196   -4.5848 C   0  0  0  0  0  0  0  0  0  0  0  0
   -0.6288   -5.5067   -3.1568 C   0  0  1  0  0  0  0  0  0  0  0  0
    0.2249   -4.4447   -2.4625 C   0  0  1  0  0  0  0  0  0  0  0  0
   -0.4552   -2.2420    1.2617 C   0  0  1  0  0  0  0  0  0  0  0  0
    0.8122   -1.4157    1.0277 C   0  0  2  0  0  0  0  0  0  0  0  0
    1.3275   -1.7839    0.1406 H   0  0  0  0  0  0  0  0  0  0  0  0
    1.7343   -1.5407    2.2421 C   0  0  1  0  0  0  0  0  0  0  0  0
    0.4572   -0.0446    0.8376 O   0  0  0  0  0  0  0  0  0  0  0  0
    0.2604    2.2283   -0.5404 H   0  0  0  0  0  0  0  0  0  0  0  0
   -1.3201    1.8636   -1.2734 H   0  0  0  0  0  0  0  0  0  0  0  0
   -1.1759    2.0329    0.4926 H   0  0  0  0  0  0  0  0  0  0  0  0
   -2.2215   -0.1985    0.7708 H   0  0  0  0  0  0  0  0  0  0  0  0
   -2.3286   -0.4324   -0.9916 H   0  0  0  0  0  0  0  0  0  0  0  0
   -0.1623   -5.3452    0.2012 H   0  0  0  0  0  0  0  0  0  0  0  0
   -1.6104   -4.3332    0.4419 H   0  0  0  0  0  0  0  0  0  0  0  0
   -2.0798   -6.7402   -0.2949 H   0  0  0  0  0  0  0  0  0  0  0  0
   -2.7990   -5.4796   -1.3306 H   0  0  0  0  0  0  0  0  0  0  0  0
   -3.3559   -9.1584   -1.4577 H   0  0  0  0  0  0  0  0  0  0  0  0
   -5.2451  -10.1053   -2.7215 H   0  0  0  0  0  0  0  0  0  0  0  0
   -3.1520   -9.4096   -6.3718 H   0  0  0  0  0  0  0  0  0  0  0  0
   -1.2644   -8.4591   -5.1082 H   0  0  0  0  0  0  0  0  0  0  0  0
   -0.0257   -6.0396   -3.8920 H   0  0  0  0  0  0  0  0  0  0  0  0
   -1.4738   -5.0276   -3.6512 H   0  0  0  0  0  0  0  0  0  0  0  0
    0.4381   -3.6339   -3.1591 H   0  0  0  0  0  0  0  0  0  0  0  0
    1.1585   -4.8917   -2.1208 H   0  0  0  0  0  0  0  0  0  0  0  0
   -0.9496   -1.9009    2.1713 H   0  0  0  0  0  0  0  0  0  0  0  0
   -0.1903   -3.2945    1.3629 H   0  0  0  0  0  0  0  0  0  0  0  0
    2.0043   -2.5867    2.3872 H   0  0  0  0  0  0  0  0  0  0  0  0
    2.6366   -0.9523    2.0753 H   0  0  0  0  0  0  0  0  0  0  0  0
    1.2190   -1.1720    3.1291 H   0  0  0  0  0  0  0  0  0  0  0  0
  1  2  1  0
  1 33  1  6
  1 34  1  0
  1 35  1  0
  2  3  1  6
  2 32  1  0
  2  4  1  0
  4  5  1  0
  4 36  1  1
  4 37  1  0
  5  6  1  1
  5  7  1  0
  5 28  1  0
  7  8  2  0
  7  9  1  0
  9 27  1  0
  9 10  1  0
 10 11  1  0
 10 38  1  1
 10 39  1  0
 11 12  1  0
 11 40  1  1
 11 41  1  0
 13 12  1  1
 12 26  1  0
 13 14  2  0
 13 15  2  0
 13 16  1  0
 16 25  2  0
 16 17  1  0
 17 18  2  0
 17 42  1  0
 18 19  1  0
 18 43  1  0
 19 20  1  0
 19 24  2  0
 20 21  1  6
 20 22  1  0
 20 23  1  0
 24 25  1  0
 24 44  1  0
 25 45  1  0
 26 27  1  0
 26 46  1  6
 26 47  1  0
 27 48  1  6
 27 49  1  0
 28 29  1  0
 28 50  1  1
 28 51  1  0
 29 30  1  6
 29 31  1  0
 29 32  1  0
 31 52  1  1
 31 53  1  0
 31 54  1  0
M  END
$$$$
