ZINC000408533124
     RDKit          3D

 59 60  0  0  1  0  0  0  0  0999 V2000
   -0.0187    1.5258    0.0104 C   0  0  1  0  0  0  0  0  0  0  0  0
    0.0021   -0.0041    0.0020 C   0  0  1  0  0  0  0  0  0  0  0  0
    0.7182   -0.4975   -1.2568 C   0  0  2  0  0  0  0  0  0  0  0  0
    0.2444   -0.0644   -2.1377 H   0  0  0  0  0  0  0  0  0  0  0  0
    0.6303   -2.0233   -1.3286 C   0  0  1  0  0  0  0  0  0  0  0  0
    2.1249   -0.0911   -1.2094 N   0  0  0  0  0  0  0  0  0  0  0  0
    2.8241    0.0515   -2.3527 C   0  0  0  0  0  0  0  0  0  0  0  0
    2.2887   -0.1566   -3.4209 O   0  0  0  0  0  0  0  0  0  0  0  0
    4.2711    0.4696   -2.3039 C   0  0  1  0  0  0  0  0  0  0  0  0
    4.8016    0.5526   -3.6670 N   0  0  0  0  0  0  0  0  0  0  0  0
    4.6200    1.7771   -4.4504 C   0  0  1  0  0  0  0  0  0  0  0  0
    5.7353    2.7687   -4.1130 C   0  0  1  0  0  0  0  0  0  0  0  0
    5.5484    4.0283   -4.9189 C   0  0  0  0  0  0  0  0  0  0  0  0
    6.1322    4.1435   -6.1666 C   0  0  0  0  0  0  0  0  0  0  0  0
    5.9608    5.2989   -6.9058 C   0  0  0  0  0  0  0  0  0  0  0  0
    5.2052    6.3390   -6.3975 C   0  0  0  0  0  0  0  0  0  0  0  0
    4.6207    6.2234   -5.1502 C   0  0  0  0  0  0  0  0  0  0  0  0
    4.7886    5.0663   -4.4128 C   0  0  0  0  0  0  0  0  0  0  0  0
    5.6067   -0.7377   -4.3221 S   0  0  1  0  0  0  0  0  0  0  0  0
    6.4435   -0.2121   -5.3433 O   0  0  0  0  0  0  0  0  0  0  0  0
    6.0998   -1.5001   -3.2290 O   0  0  0  0  0  0  0  0  0  0  0  0
    4.4078   -1.7447   -5.1304 C   0  0  0  0  0  0  0  0  0  0  0  0
    3.7695   -2.7526   -4.4321 C   0  0  0  0  0  0  0  0  0  0  0  0
    2.8287   -3.5433   -5.0634 C   0  0  0  0  0  0  0  0  0  0  0  0
    2.5249   -3.3251   -6.3992 C   0  0  0  0  0  0  0  0  0  0  0  0
    1.5995   -4.1012   -7.0223 O   0  0  0  0  0  0  0  0  0  0  0  0
    0.9783   -5.1239   -6.2411 C   0  0  1  0  0  0  0  0  0  0  0  0
    3.1670   -2.3128   -7.0979 C   0  0  0  0  0  0  0  0  0  0  0  0
    2.8390   -2.0727   -8.5490 C   0  0  1  0  0  0  0  0  0  0  0  0
    4.1029   -1.5217   -6.4607 C   0  0  0  0  0  0  0  0  0  0  0  0
    1.0039    1.9031    0.0027 H   0  0  0  0  0  0  0  0  0  0  0  0
   -0.5459    1.8868   -0.8726 H   0  0  0  0  0  0  0  0  0  0  0  0
   -0.5289    1.8773    0.9072 H   0  0  0  0  0  0  0  0  0  0  0  0
    0.5293   -0.3651    0.8851 H   0  0  0  0  0  0  0  0  0  0  0  0
   -1.0205   -0.3814    0.0098 H   0  0  0  0  0  0  0  0  0  0  0  0
    1.1041   -2.4564   -0.4477 H   0  0  0  0  0  0  0  0  0  0  0  0
   -0.4163   -2.3257   -1.3639 H   0  0  0  0  0  0  0  0  0  0  0  0
    1.1405   -2.3748   -2.2254 H   0  0  0  0  0  0  0  0  0  0  0  0
    2.5531    0.0754   -0.3551 H   0  0  0  0  0  0  0  0  0  0  0  0
    4.3517    1.4443   -1.8227 H   0  0  0  0  0  0  0  0  0  0  0  0
    4.8424   -0.2644   -1.7357 H   0  0  0  0  0  0  0  0  0  0  0  0
    4.6563    1.5373   -5.5131 H   0  0  0  0  0  0  0  0  0  0  0  0
    3.6540    2.2217   -4.2111 H   0  0  0  0  0  0  0  0  0  0  0  0
    5.6990    3.0085   -3.0503 H   0  0  0  0  0  0  0  0  0  0  0  0
    6.7013    2.3241   -4.3523 H   0  0  0  0  0  0  0  0  0  0  0  0
    6.7225    3.3309   -6.5637 H   0  0  0  0  0  0  0  0  0  0  0  0
    6.4174    5.3892   -7.8804 H   0  0  0  0  0  0  0  0  0  0  0  0
    5.0719    7.2420   -6.9748 H   0  0  0  0  0  0  0  0  0  0  0  0
    4.0307    7.0361   -4.7529 H   0  0  0  0  0  0  0  0  0  0  0  0
    4.3319    4.9760   -3.4383 H   0  0  0  0  0  0  0  0  0  0  0  0
    4.0066   -2.9224   -3.3922 H   0  0  0  0  0  0  0  0  0  0  0  0
    2.3305   -4.3309   -4.5176 H   0  0  0  0  0  0  0  0  0  0  0  0
    0.4596   -4.6710   -5.3962 H   0  0  0  0  0  0  0  0  0  0  0  0
    0.2627   -5.6678   -6.8576 H   0  0  0  0  0  0  0  0  0  0  0  0
    1.7389   -5.8128   -5.8736 H   0  0  0  0  0  0  0  0  0  0  0  0
    2.0213   -1.3557   -8.6229 H   0  0  0  0  0  0  0  0  0  0  0  0
    3.7169   -1.6763   -9.0592 H   0  0  0  0  0  0  0  0  0  0  0  0
    2.5415   -3.0123   -9.0146 H   0  0  0  0  0  0  0  0  0  0  0  0
    4.6027   -0.7334   -7.0040 H   0  0  0  0  0  0  0  0  0  0  0  0
  1  2  1  0
  1 31  1  6
  1 32  1  0
  1 33  1  0
  2  3  1  0
  2 34  1  1
  2 35  1  0
  3  4  1  6
  3  5  1  0
  3  6  1  0
  5 36  1  1
  5 37  1  0
  5 38  1  0
  6  7  1  0
  6 39  1  0
  7  8  2  0
  7  9  1  0
  9 10  1  0
  9 40  1  1
  9 41  1  0
 10 11  1  0
 19 10  1  1
 11 12  1  0
 11 42  1  6
 11 43  1  0
 12 13  1  0
 12 44  1  1
 12 45  1  0
 13 18  2  0
 13 14  1  0
 14 15  2  0
 14 46  1  0
 15 16  1  0
 15 47  1  0
 16 17  2  0
 16 48  1  0
 17 18  1  0
 17 49  1  0
 18 50  1  0
 19 20  2  0
 19 21  2  0
 19 22  1  0
 22 30  2  0
 22 23  1  0
 23 24  2  0
 23 51  1  0
 24 25  1  0
 24 52  1  0
 25 26  1  0
 25 28  2  0
 26 27  1  0
 27 53  1  1
 27 54  1  0
 27 55  1  0
 28 29  1  0
 28 30  1  0
 29 56  1  1
 29 57  1  0
 29 58  1  0
 30 59  1  0
M  END
$$$$
