ZINC000008224156
     RDKit          3D

 43 44  0  0  1  0  0  0  0  0999 V2000
   -2.5287    5.6028    0.4942 C   0  0  1  0  0  0  0  0  0  0  0  0
   -1.2846    5.8898   -0.3489 C   0  0  2  0  0  0  0  0  0  0  0  0
   -1.0421    6.9509   -0.2893 H   0  0  0  0  0  0  0  0  0  0  0  0
   -1.5530    5.5157   -1.7839 C   0  0  0  0  0  0  0  0  0  0  0  0
   -0.8707    4.6741   -2.3289 O   0  0  0  0  0  0  0  0  0  0  0  0
   -2.5513    6.1164   -2.4615 N   0  0  0  0  0  0  0  0  0  0  0  0
   -2.7216    5.8628   -3.8270 C   0  0  0  0  0  0  0  0  0  0  0  0
   -1.6253    5.5435   -4.6174 C   0  0  0  0  0  0  0  0  0  0  0  0
   -1.7976    5.2877   -5.9637 C   0  0  0  0  0  0  0  0  0  0  0  0
   -3.0583    5.3613   -6.5271 C   0  0  0  0  0  0  0  0  0  0  0  0
   -3.2417    5.0881   -7.9978 C   0  0  1  0  0  0  0  0  0  0  0  0
   -3.1075    6.2822   -8.7142 F   0  0  0  0  0  0  0  0  0  0  0  0
   -2.2723    4.1753   -8.4270 F   0  0  0  0  0  0  0  0  0  0  0  0
   -4.5156    4.5532   -8.2174 F   0  0  0  0  0  0  0  0  0  0  0  0
   -4.1511    5.6845   -5.7439 C   0  0  0  0  0  0  0  0  0  0  0  0
   -3.9864    5.9354   -4.3958 C   0  0  0  0  0  0  0  0  0  0  0  0
   -0.1584    5.1023    0.1586 N   0  0  0  0  0  0  0  0  0  0  0  0
    1.0510    5.7302    0.4651 C   0  0  0  0  0  0  0  0  0  0  0  0
    1.9039    5.1745    1.4103 C   0  0  0  0  0  0  0  0  0  0  0  0
    3.0988    5.7982    1.7113 C   0  0  0  0  0  0  0  0  0  0  0  0
    3.4465    6.9746    1.0731 C   0  0  0  0  0  0  0  0  0  0  0  0
    2.5971    7.5336    0.1358 C   0  0  0  0  0  0  0  0  0  0  0  0
    1.4034    6.9121   -0.1741 C   0  0  0  0  0  0  0  0  0  0  0  0
   -0.3192    3.4676    0.3689 S   0  0  1  0  0  0  0  0  0  0  0  0
   -1.0306    3.2925    2.0283 C   0  0  1  0  0  0  0  0  0  0  0  0
   -1.2611    3.0779   -0.6212 O   0  0  0  0  0  0  0  0  0  0  0  0
    1.0146    2.9782    0.3440 O   0  0  0  0  0  0  0  0  0  0  0  0
   -2.7302    4.5316    0.4915 H   0  0  0  0  0  0  0  0  0  0  0  0
   -2.3593    5.9381    1.5175 H   0  0  0  0  0  0  0  0  0  0  0  0
   -3.3827    6.1343    0.0744 H   0  0  0  0  0  0  0  0  0  0  0  0
   -3.1517    6.7245   -2.0025 H   0  0  0  0  0  0  0  0  0  0  0  0
   -0.6397    5.4906   -4.1789 H   0  0  0  0  0  0  0  0  0  0  0  0
   -0.9461    5.0346   -6.5780 H   0  0  0  0  0  0  0  0  0  0  0  0
   -5.1344    5.7412   -6.1869 H   0  0  0  0  0  0  0  0  0  0  0  0
   -4.8403    6.1875   -3.7845 H   0  0  0  0  0  0  0  0  0  0  0  0
    1.6328    4.2559    1.9094 H   0  0  0  0  0  0  0  0  0  0  0  0
    3.7625    5.3665    2.4458 H   0  0  0  0  0  0  0  0  0  0  0  0
    4.3814    7.4604    1.3103 H   0  0  0  0  0  0  0  0  0  0  0  0
    2.8695    8.4550   -0.3574 H   0  0  0  0  0  0  0  0  0  0  0  0
    0.7425    7.3468   -0.9095 H   0  0  0  0  0  0  0  0  0  0  0  0
   -2.0522    3.6725    2.0276 H   0  0  0  0  0  0  0  0  0  0  0  0
   -1.0346    2.2402    2.3127 H   0  0  0  0  0  0  0  0  0  0  0  0
   -0.4325    3.8594    2.7417 H   0  0  0  0  0  0  0  0  0  0  0  0
  1  2  1  0
  1 28  1  1
  1 29  1  0
  1 30  1  0
  2  3  1  6
  2  4  1  0
  2 17  1  0
  4  5  2  0
  4  6  1  0
  6  7  1  0
  6 31  1  0
  7 16  2  0
  7  8  1  0
  8  9  2  0
  8 32  1  0
  9 10  1  0
  9 33  1  0
 10 11  1  0
 10 15  2  0
 11 12  1  6
 11 13  1  0
 11 14  1  0
 15 16  1  0
 15 34  1  0
 16 35  1  0
 17 18  1  0
 24 17  1  6
 18 23  2  0
 18 19  1  0
 19 20  2  0
 19 36  1  0
 20 21  1  0
 20 37  1  0
 21 22  2  0
 21 38  1  0
 22 23  1  0
 22 39  1  0
 23 40  1  0
 24 25  1  0
 24 26  2  0
 24 27  2  0
 25 41  1  6
 25 42  1  0
 25 43  1  0
M  END
$$$$
