ZINC000029789748
     RDKit          3D

 43 45  0  0  1  0  0  0  0  0999 V2000
   -1.2952    1.7031    0.7797 C   0  0  1  0  0  0  0  0  0  0  0  0
   -1.2285    0.1834    0.9439 C   0  0  2  0  0  0  0  0  0  0  0  0
   -0.1903   -0.1437    0.8869 H   0  0  0  0  0  0  0  0  0  0  0  0
   -2.0389   -0.4882   -0.1706 C   0  0  1  0  0  0  0  0  0  0  0  0
   -2.1152   -1.9297    0.1151 N   0  0  0  0  0  0  0  0  0  0  0  0
   -1.7977   -2.8412   -0.8256 C   0  0  0  0  0  0  0  0  0  0  0  0
   -1.5330   -2.4809   -1.9562 O   0  0  0  0  0  0  0  0  0  0  0  0
   -1.7715   -4.2769   -0.4832 C   0  0  0  0  0  0  0  0  0  0  0  0
   -1.0166   -4.7264    0.6001 C   0  0  0  0  0  0  0  0  0  0  0  0
   -0.9956   -6.0694    0.9157 C   0  0  0  0  0  0  0  0  0  0  0  0
   -1.7203   -6.9777    0.1624 C   0  0  0  0  0  0  0  0  0  0  0  0
   -2.4732   -6.5510   -0.9134 C   0  0  0  0  0  0  0  0  0  0  0  0
   -2.5122   -5.1996   -1.2437 C   0  0  0  0  0  0  0  0  0  0  0  0
   -3.3190   -4.7372   -2.3976 C   0  0  0  0  0  0  0  0  0  0  0  0
   -4.2453   -3.7077   -2.2362 C   0  0  0  0  0  0  0  0  0  0  0  0
   -4.9937   -3.2814   -3.3143 C   0  0  0  0  0  0  0  0  0  0  0  0
   -4.8264   -3.8734   -4.5533 C   0  0  0  0  0  0  0  0  0  0  0  0
   -5.6469   -3.4032   -5.7267 C   0  0  1  0  0  0  0  0  0  0  0  0
   -4.9689   -2.3727   -6.3868 F   0  0  0  0  0  0  0  0  0  0  0  0
   -5.8502   -4.4685   -6.6104 F   0  0  0  0  0  0  0  0  0  0  0  0
   -6.8832   -2.9318   -5.2722 F   0  0  0  0  0  0  0  0  0  0  0  0
   -3.9086   -4.8950   -4.7197 C   0  0  0  0  0  0  0  0  0  0  0  0
   -3.1506   -5.3262   -3.6502 C   0  0  0  0  0  0  0  0  0  0  0  0
   -2.5478   -2.3466    1.4584 C   0  0  1  0  0  0  0  0  0  0  0  0
   -1.7126   -1.5845    2.4935 C   0  0  1  0  0  0  0  0  0  0  0  0
   -1.7760   -0.1843    2.2123 O   0  0  0  0  0  0  0  0  0  0  0  0
   -0.7203    2.1799    1.5735 H   0  0  0  0  0  0  0  0  0  0  0  0
   -0.8793    1.9825   -0.1883 H   0  0  0  0  0  0  0  0  0  0  0  0
   -2.3337    2.0294    0.8368 H   0  0  0  0  0  0  0  0  0  0  0  0
   -3.0434   -0.0660   -0.1995 H   0  0  0  0  0  0  0  0  0  0  0  0
   -1.5458   -0.3296   -1.1296 H   0  0  0  0  0  0  0  0  0  0  0  0
   -0.4484   -4.0235    1.1914 H   0  0  0  0  0  0  0  0  0  0  0  0
   -0.4101   -6.4144    1.7551 H   0  0  0  0  0  0  0  0  0  0  0  0
   -1.6961   -8.0268    0.4180 H   0  0  0  0  0  0  0  0  0  0  0  0
   -3.0357   -7.2656   -1.4960 H   0  0  0  0  0  0  0  0  0  0  0  0
   -4.3770   -3.2450   -1.2692 H   0  0  0  0  0  0  0  0  0  0  0  0
   -5.7118   -2.4842   -3.1904 H   0  0  0  0  0  0  0  0  0  0  0  0
   -3.7823   -5.3534   -5.6894 H   0  0  0  0  0  0  0  0  0  0  0  0
   -2.4342   -6.1236   -3.7813 H   0  0  0  0  0  0  0  0  0  0  0  0
   -3.6035   -2.1116    1.5935 H   0  0  0  0  0  0  0  0  0  0  0  0
   -2.3916   -3.4187    1.5780 H   0  0  0  0  0  0  0  0  0  0  0  0
   -2.1084   -1.7738    3.4913 H   0  0  0  0  0  0  0  0  0  0  0  0
   -0.6763   -1.9188    2.4427 H   0  0  0  0  0  0  0  0  0  0  0  0
  1  2  1  0
  1 27  1  1
  1 28  1  0
  1 29  1  0
  2  3  1  1
  2 26  1  0
  2  4  1  0
  4  5  1  0
  4 30  1  6
  4 31  1  0
  5  6  1  0
  5 24  1  0
  6  7  2  0
  6  8  1  0
  8 13  2  0
  8  9  1  0
  9 10  2  0
  9 32  1  0
 10 11  1  0
 10 33  1  0
 11 12  2  0
 11 34  1  0
 12 13  1  0
 12 35  1  0
 13 14  1  0
 14 23  2  0
 14 15  1  0
 15 16  2  0
 15 36  1  0
 16 17  1  0
 16 37  1  0
 17 18  1  0
 17 22  2  0
 18 19  1  6
 18 20  1  0
 18 21  1  0
 22 23  1  0
 22 38  1  0
 23 39  1  0
 24 25  1  0
 24 40  1  1
 24 41  1  0
 25 26  1  0
 25 42  1  1
 25 43  1  0
M  END
$$$$
