ZINC000079017700
     RDKit          3D

 48 49  0  0  1  0  0  0  0  0999 V2000
   -0.0187    1.5258    0.0104 C   0  0  1  0  0  0  0  0  0  0  0  0
    0.0021   -0.0041    0.0020 C   0  0  1  0  0  0  0  0  0  0  0  0
    0.7421   -0.5109    1.2415 C   0  0  1  0  0  0  0  0  0  0  0  0
   -1.4333   -0.5336    0.0129 C   0  0  1  0  0  0  0  0  0  0  0  0
    0.6817   -0.4723   -1.1926 O   0  0  0  0  0  0  0  0  0  0  0  0
    1.9630   -0.0923   -1.3556 C   0  0  0  0  0  0  0  0  0  0  0  0
    2.4986    0.6115   -0.5223 O   0  0  0  0  0  0  0  0  0  0  0  0
    2.6515   -0.4924   -2.4429 N   0  0  0  0  0  0  0  0  0  0  0  0
    2.0147   -1.3386   -3.4619 C   0  0  1  0  0  0  0  0  0  0  0  0
    2.8656   -2.6002   -3.6529 C   0  0  1  0  0  0  0  0  0  0  0  0
    4.2665   -2.1977   -3.8411 N   0  0  0  0  0  0  0  0  0  0  0  0
    5.1121   -2.6884   -5.1777 S   0  0  1  0  0  0  0  0  0  0  0  0
    6.4874   -2.6359   -4.8240 O   0  0  0  0  0  0  0  0  0  0  0  0
    4.4743   -3.8691   -5.6449 O   0  0  0  0  0  0  0  0  0  0  0  0
    4.8720   -1.4666   -6.4244 C   0  0  0  0  0  0  0  0  0  0  0  0
    3.8103   -1.5750   -7.3030 C   0  0  0  0  0  0  0  0  0  0  0  0
    3.6220   -0.6164   -8.2811 C   0  0  0  0  0  0  0  0  0  0  0  0
    4.4950    0.4507   -8.3802 C   0  0  0  0  0  0  0  0  0  0  0  0
    4.2899    1.4954   -9.4468 C   0  0  1  0  0  0  0  0  0  0  0  0
    3.4701    2.5144   -8.9500 F   0  0  0  0  0  0  0  0  0  0  0  0
    5.5275    2.0320   -9.8181 F   0  0  0  0  0  0  0  0  0  0  0  0
    3.6819    0.9098  -10.5624 F   0  0  0  0  0  0  0  0  0  0  0  0
    5.5559    0.5599   -7.5007 C   0  0  0  0  0  0  0  0  0  0  0  0
    5.7420   -0.3966   -6.5202 C   0  0  0  0  0  0  0  0  0  0  0  0
    4.9033   -1.3514   -2.8222 C   0  0  2  0  0  0  0  0  0  0  0  0
    5.9037   -1.0714   -3.1523 H   0  0  0  0  0  0  0  0  0  0  0  0
    4.9910   -2.0894   -1.5515 C   0  0  0  0  0  0  0  0  0  0  0  0
    5.0586   -2.6589   -0.5709 N   0  0  0  0  0  0  0  0  0  0  0  0
    4.0506   -0.0852   -2.6340 C   0  0  1  0  0  0  0  0  0  0  0  0
    1.0039    1.9031    0.0027 H   0  0  0  0  0  0  0  0  0  0  0  0
   -0.5459    1.8868   -0.8726 H   0  0  0  0  0  0  0  0  0  0  0  0
   -0.5289    1.8773    0.9072 H   0  0  0  0  0  0  0  0  0  0  0  0
    0.2319   -0.1594    2.1383 H   0  0  0  0  0  0  0  0  0  0  0  0
    0.7568   -1.6008    1.2356 H   0  0  0  0  0  0  0  0  0  0  0  0
    1.7647   -0.1336    1.2338 H   0  0  0  0  0  0  0  0  0  0  0  0
   -1.9605   -0.1726   -0.8702 H   0  0  0  0  0  0  0  0  0  0  0  0
   -1.4185   -1.6235    0.0069 H   0  0  0  0  0  0  0  0  0  0  0  0
   -1.9435   -0.1821    0.9097 H   0  0  0  0  0  0  0  0  0  0  0  0
    1.0143   -1.6186   -3.1318 H   0  0  0  0  0  0  0  0  0  0  0  0
    1.9525   -0.7932   -4.4036 H   0  0  0  0  0  0  0  0  0  0  0  0
    2.7827   -3.2344   -2.7703 H   0  0  0  0  0  0  0  0  0  0  0  0
    2.5203   -3.1448   -4.5316 H   0  0  0  0  0  0  0  0  0  0  0  0
    3.1282   -2.4087   -7.2255 H   0  0  0  0  0  0  0  0  0  0  0  0
    2.7929   -0.7015   -8.9679 H   0  0  0  0  0  0  0  0  0  0  0  0
    6.2378    1.3938   -7.5780 H   0  0  0  0  0  0  0  0  0  0  0  0
    6.5709   -0.3114   -5.8331 H   0  0  0  0  0  0  0  0  0  0  0  0
    4.1356    0.5477   -3.5173 H   0  0  0  0  0  0  0  0  0  0  0  0
    4.3949    0.4604   -1.7554 H   0  0  0  0  0  0  0  0  0  0  0  0
  1  2  1  0
  1 30  1  6
  1 31  1  0
  1 32  1  0
  2  3  1  0
  2  4  1  0
  2  5  1  6
  3 33  1  1
  3 34  1  0
  3 35  1  0
  4 36  1  6
  4 37  1  0
  4 38  1  0
  5  6  1  0
  6  7  2  0
  6  8  1  0
  8 29  1  0
  8  9  1  0
  9 10  1  0
  9 39  1  1
  9 40  1  0
 10 11  1  0
 10 41  1  1
 10 42  1  0
 12 11  1  1
 11 25  1  0
 12 13  2  0
 12 14  2  0
 12 15  1  0
 15 24  2  0
 15 16  1  0
 16 17  2  0
 16 43  1  0
 17 18  1  0
 17 44  1  0
 18 19  1  0
 18 23  2  0
 19 20  1  1
 19 21  1  0
 19 22  1  0
 23 24  1  0
 23 45  1  0
 24 46  1  0
 25 26  1  6
 25 27  1  0
 25 29  1  0
 27 28  3  0
 29 47  1  6
 29 48  1  0
M  END
$$$$
