ZINC000028208259
     RDKit          3D

 52 52  0  0  1  0  0  0  0  0999 V2000
   -0.0187    1.5258    0.0104 C   0  0  1  0  0  0  0  0  0  0  0  0
    0.0021   -0.0041    0.0020 C   0  0  1  0  0  0  0  0  0  0  0  0
    0.7421   -0.5109    1.2415 C   0  0  1  0  0  0  0  0  0  0  0  0
    0.7628   -2.0407    1.2331 C   0  0  1  0  0  0  0  0  0  0  0  0
    1.1931   -2.3931    0.2957 H   0  0  0  0  0  0  0  0  0  0  0  0
    1.6083   -2.5458    2.4040 C   0  0  1  0  0  0  0  0  0  0  0  0
   -0.6052   -2.5484    1.3639 N   0  0  0  0  0  0  0  0  0  0  0  0
   -0.9177   -3.7721    0.8935 C   0  0  0  0  0  0  0  0  0  0  0  0
   -0.0664   -4.4531    0.3620 O   0  0  0  0  0  0  0  0  0  0  0  0
   -2.3249   -4.2944    1.0279 C   0  0  1  0  0  0  0  0  0  0  0  0
   -2.4040   -5.6024    0.4581 O   0  0  0  0  0  0  0  0  0  0  0  0
   -3.6140   -6.2205    0.4974 C   0  0  0  0  0  0  0  0  0  0  0  0
   -4.7034   -5.5791    1.0671 C   0  0  0  0  0  0  0  0  0  0  0  0
   -5.9327   -6.2092    1.1055 C   0  0  0  0  0  0  0  0  0  0  0  0
   -6.0775   -7.4783    0.5771 C   0  0  0  0  0  0  0  0  0  0  0  0
   -7.6465   -8.2784    0.6279 S   0  0  1  0  0  0  0  0  0  0  0  0
   -7.3882   -9.6736    0.5511 O   0  0  0  0  0  0  0  0  0  0  0  0
   -8.3681   -7.6792    1.6954 O   0  0  0  0  0  0  0  0  0  0  0  0
   -8.4483   -7.8740   -0.7635 N   0  0  0  0  0  0  0  0  0  0  0  0
   -8.3056   -8.7075   -1.9598 C   0  0  1  0  0  0  0  0  0  0  0  0
   -9.4573   -9.7128   -2.0213 C   0  0  1  0  0  0  0  0  0  0  0  0
   -9.3004   -6.6828   -0.7981 C   0  0  1  0  0  0  0  0  0  0  0  0
   -8.5010   -5.4998   -1.3480 C   0  0  1  0  0  0  0  0  0  0  0  0
   -4.9932   -8.1209    0.0081 C   0  0  0  0  0  0  0  0  0  0  0  0
   -3.7628   -7.4930   -0.0381 C   0  0  0  0  0  0  0  0  0  0  0  0
   -2.4016   -8.2998   -0.7524 Cl  0  0  0  0  0  0  0  0  0  0  0  0
    1.0039    1.9031    0.0027 H   0  0  0  0  0  0  0  0  0  0  0  0
   -0.5459    1.8868   -0.8726 H   0  0  0  0  0  0  0  0  0  0  0  0
   -0.5289    1.8773    0.9072 H   0  0  0  0  0  0  0  0  0  0  0  0
   -1.0205   -0.3814    0.0098 H   0  0  0  0  0  0  0  0  0  0  0  0
    0.5123   -0.3556   -0.8948 H   0  0  0  0  0  0  0  0  0  0  0  0
    1.7647   -0.1336    1.2338 H   0  0  0  0  0  0  0  0  0  0  0  0
    0.2319   -0.1594    2.1383 H   0  0  0  0  0  0  0  0  0  0  0  0
    1.1780   -2.1934    3.3415 H   0  0  0  0  0  0  0  0  0  0  0  0
    1.6231   -3.6357    2.3980 H   0  0  0  0  0  0  0  0  0  0  0  0
    2.6261   -2.1681    2.3068 H   0  0  0  0  0  0  0  0  0  0  0  0
   -1.2861   -2.0038    1.7889 H   0  0  0  0  0  0  0  0  0  0  0  0
   -2.5961   -4.3405    2.0827 H   0  0  0  0  0  0  0  0  0  0  0  0
   -3.0112   -3.6282    0.5052 H   0  0  0  0  0  0  0  0  0  0  0  0
   -4.5911   -4.5878    1.4809 H   0  0  0  0  0  0  0  0  0  0  0  0
   -6.7812   -5.7097    1.5493 H   0  0  0  0  0  0  0  0  0  0  0  0
   -8.3271   -8.0755   -2.8476 H   0  0  0  0  0  0  0  0  0  0  0  0
   -7.3573   -9.2434   -1.9182 H   0  0  0  0  0  0  0  0  0  0  0  0
  -10.4055   -9.1768   -2.0629 H   0  0  0  0  0  0  0  0  0  0  0  0
   -9.3511  -10.3329   -2.9114 H   0  0  0  0  0  0  0  0  0  0  0  0
   -9.4358  -10.3448   -1.1335 H   0  0  0  0  0  0  0  0  0  0  0  0
  -10.1607   -6.8700   -1.4406 H   0  0  0  0  0  0  0  0  0  0  0  0
   -9.6434   -6.4520    0.2105 H   0  0  0  0  0  0  0  0  0  0  0  0
   -9.1349   -4.6134   -1.3737 H   0  0  0  0  0  0  0  0  0  0  0  0
   -7.6406   -5.3125   -0.7054 H   0  0  0  0  0  0  0  0  0  0  0  0
   -8.1579   -5.7305   -2.3565 H   0  0  0  0  0  0  0  0  0  0  0  0
   -5.1088   -9.1124   -0.4041 H   0  0  0  0  0  0  0  0  0  0  0  0
  1  2  1  0
  1 27  1  6
  1 28  1  0
  1 29  1  0
  2  3  1  0
  2 30  1  1
  2 31  1  0
  3  4  1  0
  3 32  1  6
  3 33  1  0
  4  5  1  6
  4  6  1  0
  4  7  1  0
  6 34  1  1
  6 35  1  0
  6 36  1  0
  7  8  1  0
  7 37  1  0
  8  9  2  0
  8 10  1  0
 10 11  1  0
 10 38  1  1
 10 39  1  0
 11 12  1  0
 12 25  2  0
 12 13  1  0
 13 14  2  0
 13 40  1  0
 14 15  1  0
 14 41  1  0
 15 16  1  0
 15 24  2  0
 16 17  2  0
 16 18  2  0
 16 19  1  6
 19 20  1  0
 19 22  1  0
 20 21  1  0
 20 42  1  6
 20 43  1  0
 21 44  1  6
 21 45  1  0
 21 46  1  0
 22 23  1  0
 22 47  1  6
 22 48  1  0
 23 49  1  6
 23 50  1  0
 23 51  1  0
 24 25  1  0
 24 52  1  0
 25 26  1  0
M  END
$$$$
