ZINC000013656361
     RDKit          3D

 42 44  0  0  1  0  0  0  0  0999 V2000
   -0.5057    0.8675   -0.3519 C   0  0  1  0  0  0  0  0  0  0  0  0
   -0.4022   -0.5540   -0.2487 O   0  0  0  0  0  0  0  0  0  0  0  0
    0.2865   -1.0469    0.8141 C   0  0  0  0  0  0  0  0  0  0  0  0
    0.8462   -0.1804    1.7418 C   0  0  0  0  0  0  0  0  0  0  0  0
    1.5454   -0.6841    2.8216 C   0  0  0  0  0  0  0  0  0  0  0  0
    1.6880   -2.0504    2.9779 C   0  0  0  0  0  0  0  0  0  0  0  0
    2.4517   -2.5971    4.1565 C   0  0  1  0  0  0  0  0  0  0  0  0
    1.5326   -2.8115    5.2770 N   0  0  0  0  0  0  0  0  0  0  0  0
    1.2480   -1.8885    6.2028 C   0  0  0  0  0  0  0  0  0  0  0  0
    1.7250   -0.7707    6.2114 O   0  0  0  0  0  0  0  0  0  0  0  0
    0.3748   -2.3360    7.1232 N   0  0  0  0  0  0  0  0  0  0  0  0
    0.0475   -3.7240    6.7537 C   0  0  2  0  0  0  0  0  0  0  0  0
   -1.3826   -3.8570    6.4650 N   0  0  0  0  0  0  0  0  0  0  0  0
   -1.8558   -4.9914    5.9123 C   0  0  0  0  0  0  0  0  0  0  0  0
   -1.1134   -5.9331    5.7307 O   0  0  0  0  0  0  0  0  0  0  0  0
   -3.3075   -5.0898    5.5198 C   0  0  1  0  0  0  0  0  0  0  0  0
   -3.6327   -5.1550    4.0262 C   0  0  1  0  0  0  0  0  0  0  0  0
   -3.7835   -6.4038    4.8972 C   0  0  1  0  0  0  0  0  0  0  0  0
    0.4626   -4.6892    7.8658 C   0  0  1  0  0  0  0  0  0  0  0  0
   -0.3120   -4.4483    9.0056 F   0  0  0  0  0  0  0  0  0  0  0  0
    0.2653   -6.0064    7.4377 F   0  0  0  0  0  0  0  0  0  0  0  0
    1.8141   -4.4956    8.1710 F   0  0  0  0  0  0  0  0  0  0  0  0
    0.8649   -3.9608    5.4992 C   0  0  0  0  0  0  0  0  0  0  0  0
    0.9124   -4.9751    4.8369 O   0  0  0  0  0  0  0  0  0  0  0  0
    1.1308   -2.9161    2.0550 C   0  0  0  0  0  0  0  0  0  0  0  0
    0.4262   -2.4177    0.9763 C   0  0  0  0  0  0  0  0  0  0  0  0
    0.4922    1.3002   -0.4233 H   0  0  0  0  0  0  0  0  0  0  0  0
   -1.0785    1.1264   -1.2423 H   0  0  0  0  0  0  0  0  0  0  0  0
   -1.0096    1.2602    0.5313 H   0  0  0  0  0  0  0  0  0  0  0  0
    0.7356    0.8869    1.6197 H   0  0  0  0  0  0  0  0  0  0  0  0
    1.9812   -0.0099    3.5440 H   0  0  0  0  0  0  0  0  0  0  0  0
    2.9159   -3.5440    3.8811 H   0  0  0  0  0  0  0  0  0  0  0  0
    3.2236   -1.8860    4.4507 H   0  0  0  0  0  0  0  0  0  0  0  0
    0.0287   -1.8414    7.8824 H   0  0  0  0  0  0  0  0  0  0  0  0
   -1.9889   -3.1285    6.6717 H   0  0  0  0  0  0  0  0  0  0  0  0
   -4.0060   -4.5562    6.1645 H   0  0  0  0  0  0  0  0  0  0  0  0
   -4.5452   -4.6641    3.6879 H   0  0  0  0  0  0  0  0  0  0  0  0
   -2.7966   -5.1267    3.3274 H   0  0  0  0  0  0  0  0  0  0  0  0
   -3.0467   -7.1971    4.7714 H   0  0  0  0  0  0  0  0  0  0  0  0
   -4.7953   -6.7345    5.1319 H   0  0  0  0  0  0  0  0  0  0  0  0
    1.2433   -3.9830    2.1795 H   0  0  0  0  0  0  0  0  0  0  0  0
   -0.0089   -3.0943    0.2557 H   0  0  0  0  0  0  0  0  0  0  0  0
  1  2  1  0
  1 27  1  6
  1 28  1  0
  1 29  1  0
  2  3  1  0
  3 26  2  0
  3  4  1  0
  4  5  2  0
  4 30  1  0
  5  6  1  0
  5 31  1  0
  6  7  1  0
  6 25  2  0
  7  8  1  0
  7 32  1  6
  7 33  1  0
  8 23  1  0
  8  9  1  0
  9 10  2  0
  9 11  1  0
 11 12  1  0
 11 34  1  0
 12 13  1  6
 12 19  1  0
 12 23  1  0
 13 14  1  0
 13 35  1  0
 14 15  2  0
 14 16  1  0
 16 18  1  0
 16 17  1  0
 16 36  1  1
 17 18  1  0
 17 37  1  6
 17 38  1  0
 18 39  1  6
 18 40  1  0
 19 20  1  1
 19 21  1  0
 19 22  1  0
 23 24  2  0
 25 26  1  0
 25 41  1  0
 26 42  1  0
M  END
$$$$
