ZINC000237507918
     RDKit          3D

 40 41  0  0  1  0  0  0  0  0999 V2000
    1.0072   -0.6039   -0.9833 C   0  0  1  0  0  0  0  0  0  0  0  0
    0.0021   -0.0041    0.0020 C   0  0  1  0  0  0  0  0  0  0  0  0
    0.2790   -0.2831    1.0186 H   0  0  0  0  0  0  0  0  0  0  0  0
    0.0080    1.4975   -0.1260 C   0  0  0  0  0  0  0  0  0  0  0  0
   -0.8366    2.0547   -0.8062 O   0  0  0  0  0  0  0  0  0  0  0  0
    0.8575    2.1551    0.4506 O   0  0  0  0  0  0  0  0  0  0  0  0
   -1.3420   -0.5157   -0.2973 N   0  0  0  0  0  0  0  0  0  0  0  0
   -2.3466    0.0975    0.5818 C   0  0  1  0  0  0  0  0  0  0  0  0
   -3.7470   -0.3213    0.1217 C   0  0  1  0  0  0  0  0  0  0  0  0
   -3.7958   -1.7896    0.0508 N   0  0  0  0  0  0  0  0  0  0  0  0
   -5.0077   -2.6367    0.7965 S   0  0  1  0  0  0  0  0  0  0  0  0
   -4.5020   -3.9451    1.0231 O   0  0  0  0  0  0  0  0  0  0  0  0
   -5.4991   -1.8024    1.8366 O   0  0  0  0  0  0  0  0  0  0  0  0
   -6.3193   -2.8050   -0.3680 C   0  0  0  0  0  0  0  0  0  0  0  0
   -7.3084   -1.8418   -0.4390 C   0  0  0  0  0  0  0  0  0  0  0  0
   -8.3374   -1.9738   -1.3525 C   0  0  0  0  0  0  0  0  0  0  0  0
   -8.3771   -3.0688   -2.1954 C   0  0  0  0  0  0  0  0  0  0  0  0
   -9.4992   -3.2130   -3.1910 C   0  0  1  0  0  0  0  0  0  0  0  0
   -9.1382   -2.5951   -4.3931 F   0  0  0  0  0  0  0  0  0  0  0  0
   -9.7473   -4.5705   -3.4206 F   0  0  0  0  0  0  0  0  0  0  0  0
  -10.6536   -2.6072   -2.6835 F   0  0  0  0  0  0  0  0  0  0  0  0
   -7.3873   -4.0312   -2.1253 C   0  0  0  0  0  0  0  0  0  0  0  0
   -6.3562   -3.8973   -1.2144 C   0  0  0  0  0  0  0  0  0  0  0  0
   -2.7401   -2.4855   -0.7004 C   0  0  1  0  0  0  0  0  0  0  0  0
   -1.3793   -1.9815   -0.2079 C   0  0  1  0  0  0  0  0  0  0  0  0
    2.0045   -0.2243   -0.7612 H   0  0  0  0  0  0  0  0  0  0  0  0
    1.0029   -1.6900   -0.8907 H   0  0  0  0  0  0  0  0  0  0  0  0
    0.7303   -0.3248   -1.9999 H   0  0  0  0  0  0  0  0  0  0  0  0
   -2.1854   -0.2365    1.6067 H   0  0  0  0  0  0  0  0  0  0  0  0
   -2.2575    1.1828    0.5343 H   0  0  0  0  0  0  0  0  0  0  0  0
   -4.4890    0.0357    0.8358 H   0  0  0  0  0  0  0  0  0  0  0  0
   -3.9500    0.0998   -0.8630 H   0  0  0  0  0  0  0  0  0  0  0  0
   -7.2774   -0.9863    0.2195 H   0  0  0  0  0  0  0  0  0  0  0  0
   -9.1105   -1.2217   -1.4075 H   0  0  0  0  0  0  0  0  0  0  0  0
   -7.4182   -4.8865   -2.7841 H   0  0  0  0  0  0  0  0  0  0  0  0
   -5.5829   -4.6492   -1.1596 H   0  0  0  0  0  0  0  0  0  0  0  0
   -2.8164   -3.5594   -0.5298 H   0  0  0  0  0  0  0  0  0  0  0  0
   -2.8464   -2.2725   -1.7641 H   0  0  0  0  0  0  0  0  0  0  0  0
   -0.5888   -2.4040   -0.8281 H   0  0  0  0  0  0  0  0  0  0  0  0
   -1.2316   -2.2866    0.8280 H   0  0  0  0  0  0  0  0  0  0  0  0
  1  2  1  0
  1 26  1  1
  1 27  1  0
  1 28  1  0
  2  3  1  1
  2  4  1  0
  2  7  1  0
  4  5  2  0
  4  6  1  0
  7 25  1  0
  7  8  1  0
  8  9  1  0
  8 29  1  1
  8 30  1  0
  9 10  1  0
  9 31  1  1
  9 32  1  0
 11 10  1  6
 10 24  1  0
 11 12  2  0
 11 13  2  0
 11 14  1  0
 14 23  2  0
 14 15  1  0
 15 16  2  0
 15 33  1  0
 16 17  1  0
 16 34  1  0
 17 18  1  0
 17 22  2  0
 18 19  1  6
 18 20  1  0
 18 21  1  0
 22 23  1  0
 22 35  1  0
 23 36  1  0
 24 25  1  0
 24 37  1  6
 24 38  1  0
 25 39  1  6
 25 40  1  0
M  END
$$$$
