ZINC000080819421
     RDKit          3D

 39 40  0  0  1  0  0  0  0  0999 V2000
   -0.5794    2.6466   -1.2101 C   0  0  1  0  0  0  0  0  0  0  0  0
   -0.3019    1.1487   -1.0680 C   0  0  1  0  0  0  0  0  0  0  0  0
   -1.5298    0.4571   -0.8314 O   0  0  0  0  0  0  0  0  0  0  0  0
   -1.3814   -0.9565   -0.6830 C   0  0  1  0  0  0  0  0  0  0  0  0
   -0.5292   -1.2961   -1.2716 H   0  0  0  0  0  0  0  0  0  0  0  0
   -1.1493   -1.2928    0.7914 C   0  0  1  0  0  0  0  0  0  0  0  0
   -2.6317   -1.6461   -1.1648 C   0  0  0  0  0  0  0  0  0  0  0  0
   -2.6538   -2.6931   -1.9186 N   0  0  0  0  0  0  0  0  0  0  0  0
   -3.8368   -3.1713   -2.2480 C   0  0  0  0  0  0  0  0  0  0  0  0
   -4.0102   -4.3873   -3.1211 C   0  0  1  0  0  0  0  0  0  0  0  0
   -3.9609   -3.9881   -4.5298 N   0  0  0  0  0  0  0  0  0  0  0  0
   -2.6796   -3.9636   -5.2398 C   0  0  1  0  0  0  0  0  0  0  0  0
   -5.0942   -3.6433   -5.1726 C   0  0  0  0  0  0  0  0  0  0  0  0
   -6.1410   -3.5672   -4.5602 O   0  0  0  0  0  0  0  0  0  0  0  0
   -5.0638   -3.3571   -6.6259 C   0  0  0  0  0  0  0  0  0  0  0  0
   -6.2021   -2.8700   -7.2663 C   0  0  0  0  0  0  0  0  0  0  0  0
   -6.1701   -2.6162   -8.5625 N   0  0  0  0  0  0  0  0  0  0  0  0
   -5.0616   -2.8237   -9.2505 C   0  0  0  0  0  0  0  0  0  0  0  0
   -3.9268   -3.3090   -8.6159 C   0  0  0  0  0  0  0  0  0  0  0  0
   -3.9484   -3.5590   -7.3223 N   0  0  0  0  0  0  0  0  0  0  0  0
   -4.8700   -2.4899   -1.7440 C   0  0  0  0  0  0  0  0  0  0  0  0
   -4.2261   -1.1590   -0.7856 S   0  0  0  0  0  0  0  0  0  0  0  0
    0.3572    3.1741   -1.3906 H   0  0  0  0  0  0  0  0  0  0  0  0
   -1.2571    2.8126   -2.0475 H   0  0  0  0  0  0  0  0  0  0  0  0
   -1.0361    3.0201   -0.2936 H   0  0  0  0  0  0  0  0  0  0  0  0
    0.1548    0.7752   -1.9845 H   0  0  0  0  0  0  0  0  0  0  0  0
    0.3758    0.9826   -0.2306 H   0  0  0  0  0  0  0  0  0  0  0  0
   -1.0361   -2.3710    0.9047 H   0  0  0  0  0  0  0  0  0  0  0  0
   -0.2450   -0.7940    1.1399 H   0  0  0  0  0  0  0  0  0  0  0  0
   -2.0015   -0.9531    1.3801 H   0  0  0  0  0  0  0  0  0  0  0  0
   -3.2098   -5.0985   -2.9168 H   0  0  0  0  0  0  0  0  0  0  0  0
   -4.9727   -4.8527   -2.9089 H   0  0  0  0  0  0  0  0  0  0  0  0
   -2.5435   -4.9027   -5.7762 H   0  0  0  0  0  0  0  0  0  0  0  0
   -2.6729   -3.1358   -5.9489 H   0  0  0  0  0  0  0  0  0  0  0  0
   -1.8692   -3.8342   -4.5225 H   0  0  0  0  0  0  0  0  0  0  0  0
   -7.1085   -2.7007   -6.7041 H   0  0  0  0  0  0  0  0  0  0  0  0
   -5.0385   -2.6153  -10.3100 H   0  0  0  0  0  0  0  0  0  0  0  0
   -3.0229   -3.4774   -9.1825 H   0  0  0  0  0  0  0  0  0  0  0  0
   -5.9151   -2.7172   -1.8944 H   0  0  0  0  0  0  0  0  0  0  0  0
  1  2  1  0
  1 23  1  6
  1 24  1  0
  1 25  1  0
  2  3  1  0
  2 26  1  6
  2 27  1  0
  3  4  1  0
  4  5  1  6
  4  6  1  0
  4  7  1  0
  6 28  1  6
  6 29  1  0
  6 30  1  0
  7 22  1  0
  7  8  2  0
  8  9  1  0
  9 10  1  0
  9 21  2  0
 10 11  1  0
 10 31  1  6
 10 32  1  0
 11 12  1  0
 11 13  1  0
 12 33  1  6
 12 34  1  0
 12 35  1  0
 13 14  2  0
 13 15  1  0
 15 20  2  0
 15 16  1  0
 16 17  2  0
 16 36  1  0
 17 18  1  0
 18 19  2  0
 18 37  1  0
 19 20  1  0
 19 38  1  0
 21 22  1  0
 21 39  1  0
M  END
$$$$
