ZINC000012738352
     RDKit          3D

 48 50  0  0  1  0  0  0  0  0999 V2000
   -0.0173    1.4248    0.0099 C   0  0  1  0  0  0  0  0  0  0  0  0
    0.0021   -0.0041    0.0020 O   0  0  0  0  0  0  0  0  0  0  0  0
    0.6062   -0.6075   -1.0564 C   0  0  0  0  0  0  0  0  0  0  0  0
    1.1727    0.1587   -2.0618 C   0  0  0  0  0  0  0  0  0  0  0  0
    1.7870   -0.4565   -3.1372 C   0  0  0  0  0  0  0  0  0  0  0  0
    1.8372   -1.8356   -3.2121 C   0  0  0  0  0  0  0  0  0  0  0  0
    2.5075   -2.5009   -4.3865 C   0  0  2  0  0  0  0  0  0  0  0  0
    2.1704   -3.5342   -4.4690 H   0  0  0  0  0  0  0  0  0  0  0  0
    4.0398   -2.4613   -4.2078 C   0  0  1  0  0  0  0  0  0  0  0  0
    4.5510   -2.1956   -5.6485 C   0  0  1  0  0  0  0  0  0  0  0  0
    3.4488   -1.2581   -6.2015 C   0  0  1  0  0  0  0  0  0  0  0  0
    2.1900   -1.7711   -5.6227 N   0  0  0  0  0  0  0  0  0  0  0  0
    0.6767   -1.5567   -6.2602 S   0  0  1  0  0  0  0  0  0  0  0  0
   -0.2368   -1.6958   -5.1807 O   0  0  0  0  0  0  0  0  0  0  0  0
    0.7456   -0.3947   -7.0752 O   0  0  0  0  0  0  0  0  0  0  0  0
    0.3722   -2.9095   -7.3472 C   0  0  0  0  0  0  0  0  0  0  0  0
    0.7284   -2.8191   -8.6798 C   0  0  0  0  0  0  0  0  0  0  0  0
    0.4895   -3.8805   -9.5327 C   0  0  0  0  0  0  0  0  0  0  0  0
   -0.1053   -5.0324   -9.0528 C   0  0  0  0  0  0  0  0  0  0  0  0
   -0.3662   -6.1893   -9.9827 C   0  0  1  0  0  0  0  0  0  0  0  0
    0.7420   -7.0431   -9.9871 F   0  0  0  0  0  0  0  0  0  0  0  0
   -1.4947   -6.8922   -9.5473 F   0  0  0  0  0  0  0  0  0  0  0  0
   -0.5881   -5.7065  -11.2768 F   0  0  0  0  0  0  0  0  0  0  0  0
   -0.4603   -5.1233   -7.7199 C   0  0  0  0  0  0  0  0  0  0  0  0
   -0.2178   -4.0634   -6.8662 C   0  0  0  0  0  0  0  0  0  0  0  0
    1.2740   -2.6064   -2.2116 C   0  0  0  0  0  0  0  0  0  0  0  0
    0.6617   -1.9965   -1.1290 C   0  0  0  0  0  0  0  0  0  0  0  0
    0.1074   -2.7530   -0.1443 O   0  0  0  0  0  0  0  0  0  0  0  0
    0.1928   -4.1720   -0.2904 C   0  0  1  0  0  0  0  0  0  0  0  0
    1.0053    1.8021    0.0021 H   0  0  0  0  0  0  0  0  0  0  0  0
   -0.5445    1.7859   -0.8732 H   0  0  0  0  0  0  0  0  0  0  0  0
   -0.5275    1.7763    0.9067 H   0  0  0  0  0  0  0  0  0  0  0  0
    1.1343    1.2366   -2.0060 H   0  0  0  0  0  0  0  0  0  0  0  0
    2.2283    0.1421   -3.9204 H   0  0  0  0  0  0  0  0  0  0  0  0
    4.3294   -1.6499   -3.5401 H   0  0  0  0  0  0  0  0  0  0  0  0
    4.4097   -3.4174   -3.8375 H   0  0  0  0  0  0  0  0  0  0  0  0
    5.5188   -1.6945   -5.6334 H   0  0  0  0  0  0  0  0  0  0  0  0
    4.6008   -3.1211   -6.2222 H   0  0  0  0  0  0  0  0  0  0  0  0
    3.6260   -0.2323   -5.8783 H   0  0  0  0  0  0  0  0  0  0  0  0
    3.4147   -1.3133   -7.2896 H   0  0  0  0  0  0  0  0  0  0  0  0
    1.1931   -1.9192   -9.0547 H   0  0  0  0  0  0  0  0  0  0  0  0
    0.7671   -3.8096  -10.5740 H   0  0  0  0  0  0  0  0  0  0  0  0
   -0.9246   -6.0234   -7.3449 H   0  0  0  0  0  0  0  0  0  0  0  0
   -0.4952   -4.1344   -5.8249 H   0  0  0  0  0  0  0  0  0  0  0  0
    1.3146   -3.6839   -2.2726 H   0  0  0  0  0  0  0  0  0  0  0  0
   -0.3098   -4.4735   -1.2094 H   0  0  0  0  0  0  0  0  0  0  0  0
    1.2403   -4.4703   -0.3345 H   0  0  0  0  0  0  0  0  0  0  0  0
   -0.2869   -4.6545    0.5611 H   0  0  0  0  0  0  0  0  0  0  0  0
  1  2  1  0
  1 30  1  6
  1 31  1  0
  1 32  1  0
  2  3  1  0
  3 27  2  0
  3  4  1  0
  4  5  2  0
  4 33  1  0
  5  6  1  0
  5 34  1  0
  6  7  1  0
  6 26  2  0
  7  8  1  6
  7 12  1  0
  7  9  1  0
  9 10  1  0
  9 35  1  1
  9 36  1  0
 10 11  1  0
 10 37  1  1
 10 38  1  0
 11 12  1  0
 11 39  1  6
 11 40  1  0
 13 12  1  1
 13 14  2  0
 13 15  2  0
 13 16  1  0
 16 25  2  0
 16 17  1  0
 17 18  2  0
 17 41  1  0
 18 19  1  0
 18 42  1  0
 19 20  1  0
 19 24  2  0
 20 21  1  6
 20 22  1  0
 20 23  1  0
 24 25  1  0
 24 43  1  0
 25 44  1  0
 26 27  1  0
 26 45  1  0
 27 28  1  0
 28 29  1  0
 29 46  1  6
 29 47  1  0
 29 48  1  0
M  END
$$$$
