ZINC000009691490
     RDKit          3D

 37 38  0  0  1  0  0  0  0  0999 V2000
    0.7092   -2.7124    1.4679 C   0  0  1  0  0  0  0  0  0  0  0  0
    0.8540   -0.9290    1.1691 S   0  0  1  0  0  0  0  0  0  0  0  0
   -0.3874   -0.2807    1.4096 O   0  0  0  0  0  0  0  0  0  0  0  0
    2.0622   -0.4270    1.7238 O   0  0  0  0  0  0  0  0  0  0  0  0
    1.0716   -0.8005   -0.4675 N   0  0  0  0  0  0  0  0  0  0  0  0
   -0.0022   -0.7682   -1.4771 C   0  0  1  0  0  0  0  0  0  0  0  0
    0.6199   -0.0396   -2.6944 C   0  0  1  0  0  0  0  0  0  0  0  0
    2.0771   -0.5714   -2.6645 C   0  0  1  0  0  0  0  0  0  0  0  0
    2.3674   -0.6933   -1.1538 C   0  0  1  0  0  0  0  0  0  0  0  0
    2.9585   -1.5886   -0.9609 H   0  0  0  0  0  0  0  0  0  0  0  0
    3.1129    0.5258   -0.6751 C   0  0  0  0  0  0  0  0  0  0  0  0
    2.5127    1.4295   -0.1327 O   0  0  0  0  0  0  0  0  0  0  0  0
    4.4465    0.6119   -0.8498 N   0  0  0  0  0  0  0  0  0  0  0  0
    5.1256    1.7803   -0.4871 C   0  0  0  0  0  0  0  0  0  0  0  0
    6.4295    1.7090   -0.0145 C   0  0  0  0  0  0  0  0  0  0  0  0
    7.0971    2.8641    0.3427 C   0  0  0  0  0  0  0  0  0  0  0  0
    6.4684    4.0906    0.2306 C   0  0  0  0  0  0  0  0  0  0  0  0
    7.1996    5.3489    0.6217 C   0  0  1  0  0  0  0  0  0  0  0  0
    7.8793    5.8580   -0.4900 F   0  0  0  0  0  0  0  0  0  0  0  0
    6.2808    6.2984    1.0817 F   0  0  0  0  0  0  0  0  0  0  0  0
    8.1176    5.0584    1.6367 F   0  0  0  0  0  0  0  0  0  0  0  0
    5.1703    4.1650   -0.2401 C   0  0  0  0  0  0  0  0  0  0  0  0
    4.4992    3.0141   -0.6043 C   0  0  0  0  0  0  0  0  0  0  0  0
   -0.1079   -3.1158    0.8698 H   0  0  0  0  0  0  0  0  0  0  0  0
    1.6410   -3.2043    1.1889 H   0  0  0  0  0  0  0  0  0  0  0  0
    0.5075   -2.8886    2.5244 H   0  0  0  0  0  0  0  0  0  0  0  0
   -0.2959   -1.7815   -1.7510 H   0  0  0  0  0  0  0  0  0  0  0  0
   -0.8606   -0.2122   -1.1002 H   0  0  0  0  0  0  0  0  0  0  0  0
    0.1185   -0.3257   -3.6190 H   0  0  0  0  0  0  0  0  0  0  0  0
    0.5956    1.0414   -2.5570 H   0  0  0  0  0  0  0  0  0  0  0  0
    2.1430   -1.5435   -3.1532 H   0  0  0  0  0  0  0  0  0  0  0  0
    2.7577    0.1420   -3.1292 H   0  0  0  0  0  0  0  0  0  0  0  0
    4.9355   -0.1361   -1.2269 H   0  0  0  0  0  0  0  0  0  0  0  0
    6.9209    0.7513    0.0739 H   0  0  0  0  0  0  0  0  0  0  0  0
    8.1111    2.8093    0.7103 H   0  0  0  0  0  0  0  0  0  0  0  0
    4.6820    5.1244   -0.3265 H   0  0  0  0  0  0  0  0  0  0  0  0
    3.4853    3.0728   -0.9718 H   0  0  0  0  0  0  0  0  0  0  0  0
  1  2  1  0
  1 24  1  6
  1 25  1  0
  1 26  1  0
  2  3  2  0
  2  4  2  0
  2  5  1  6
  5  9  1  0
  5  6  1  0
  6  7  1  0
  6 27  1  6
  6 28  1  0
  7  8  1  0
  7 29  1  6
  7 30  1  0
  8  9  1  0
  8 31  1  6
  8 32  1  0
  9 10  1  6
  9 11  1  0
 11 12  2  0
 11 13  1  0
 13 14  1  0
 13 33  1  0
 14 23  2  0
 14 15  1  0
 15 16  2  0
 15 34  1  0
 16 17  1  0
 16 35  1  0
 17 18  1  0
 17 22  2  0
 18 19  1  6
 18 20  1  0
 18 21  1  0
 22 23  1  0
 22 36  1  0
 23 37  1  0
M  END
$$$$
