ZINC000062132517
     RDKit          3D

 32 33  0  0  1  0  0  0  0  0999 V2000
    0.0021   -0.0041    0.0020 O   0  0  0  0  0  0  0  0  0  0  0  0
   -0.0145    1.2150    0.0087 C   0  0  0  0  0  0  0  0  0  0  0  0
    1.0330    1.8389    0.0021 O   0  0  0  0  0  0  0  0  0  0  0  0
   -1.3296    1.9507    0.0190 C   0  0  2  0  0  0  0  0  0  0  0  0
   -2.1364    1.2998    0.3558 H   0  0  0  0  0  0  0  0  0  0  0  0
   -1.6436    2.5481   -1.3782 C   0  0  1  0  0  0  0  0  0  0  0  0
   -2.5510    3.7508   -1.0439 C   0  0  1  0  0  0  0  0  0  0  0  0
   -2.2862    4.1222    0.3538 N   0  0  0  0  0  0  0  0  0  0  0  0
   -3.0347    5.3422    1.1867 S   0  0  1  0  0  0  0  0  0  0  0  0
   -2.1500    5.7141    2.2347 O   0  0  0  0  0  0  0  0  0  0  0  0
   -3.5136    6.2585    0.2118 O   0  0  0  0  0  0  0  0  0  0  0  0
   -4.4583    4.6490    1.9597 C   0  0  0  0  0  0  0  0  0  0  0  0
   -5.6685    4.6328    1.2919 C   0  0  0  0  0  0  0  0  0  0  0  0
   -6.7853    4.0890    1.8984 C   0  0  0  0  0  0  0  0  0  0  0  0
   -6.6919    3.5610    3.1725 C   0  0  0  0  0  0  0  0  0  0  0  0
   -7.9095    2.9687    3.8339 C   0  0  1  0  0  0  0  0  0  0  0  0
   -7.9898    1.6059    3.5281 F   0  0  0  0  0  0  0  0  0  0  0  0
   -7.8125    3.1306    5.2201 F   0  0  0  0  0  0  0  0  0  0  0  0
   -9.0567    3.6196    3.3675 F   0  0  0  0  0  0  0  0  0  0  0  0
   -5.4813    3.5761    3.8398 C   0  0  0  0  0  0  0  0  0  0  0  0
   -4.3636    4.1164    3.2318 C   0  0  0  0  0  0  0  0  0  0  0  0
   -1.2449    3.2274    0.8922 C   0  0  1  0  0  0  0  0  0  0  0  0
   -0.7293    2.8798   -1.8701 H   0  0  0  0  0  0  0  0  0  0  0  0
   -2.1747    1.8244   -1.9965 H   0  0  0  0  0  0  0  0  0  0  0  0
   -2.3144    4.5876   -1.7010 H   0  0  0  0  0  0  0  0  0  0  0  0
   -3.5976    3.4693   -1.1607 H   0  0  0  0  0  0  0  0  0  0  0  0
   -5.7415    5.0452    0.2964 H   0  0  0  0  0  0  0  0  0  0  0  0
   -7.7310    4.0769    1.3769 H   0  0  0  0  0  0  0  0  0  0  0  0
   -5.4082    3.1633    4.8351 H   0  0  0  0  0  0  0  0  0  0  0  0
   -3.4178    4.1281    3.7532 H   0  0  0  0  0  0  0  0  0  0  0  0
   -1.4519    2.9891    1.9355 H   0  0  0  0  0  0  0  0  0  0  0  0
   -0.2618    3.6879    0.7952 H   0  0  0  0  0  0  0  0  0  0  0  0
  1  2  2  0
  2  3  1  0
  2  4  1  0
  4  5  1  1
  4 22  1  0
  4  6  1  0
  6  7  1  0
  6 23  1  6
  6 24  1  0
  7  8  1  0
  7 25  1  6
  7 26  1  0
  9  8  1  6
  8 22  1  0
  9 10  2  0
  9 11  2  0
  9 12  1  0
 12 21  2  0
 12 13  1  0
 13 14  2  0
 13 27  1  0
 14 15  1  0
 14 28  1  0
 15 16  1  0
 15 20  2  0
 16 17  1  1
 16 18  1  0
 16 19  1  0
 20 21  1  0
 20 29  1  0
 21 30  1  0
 22 31  1  1
 22 32  1  0
M  END
$$$$
