ZINC000822662146
     RDKit          3D

 37 38  0  0  1  0  0  0  0  0999 V2000
    0.1586    1.8495   -0.1753 C   0  0  1  0  0  0  0  0  0  0  0  0
    0.1857    0.3253   -0.0445 C   0  0  1  0  0  0  0  0  0  0  0  0
    0.7276   -0.2879   -1.3373 C   0  0  2  0  0  0  0  0  0  0  0  0
    1.6992    0.1493   -1.5674 H   0  0  0  0  0  0  0  0  0  0  0  0
   -0.2057   -0.0138   -2.4381 N   0  0  1  0  0  0  0  0  0  0  0  0
   -1.0773   -0.4925   -2.2671 H   0  0  0  0  0  0  0  0  0  0  0  0
   -0.3735    0.9794   -2.4973 H   0  0  0  0  0  0  0  0  0  0  0  0
    0.3742   -0.4887   -3.7014 C   0  0  1  0  0  0  0  0  0  0  0  0
   -0.5244   -0.0959   -4.8457 C   0  0  0  0  0  0  0  0  0  0  0  0
   -0.2640    1.0693   -5.5506 C   0  0  0  0  0  0  0  0  0  0  0  0
   -1.0929    1.4271   -6.6023 C   0  0  0  0  0  0  0  0  0  0  0  0
   -2.1607    0.5999   -6.9134 C   0  0  0  0  0  0  0  0  0  0  0  0
   -2.3625   -0.5565   -6.1617 C   0  0  0  0  0  0  0  0  0  0  0  0
   -3.4976   -1.4502   -6.4807 C   0  0  0  0  0  0  0  0  0  0  0  0
   -4.2539   -1.1731   -7.4003 O   0  0  0  0  0  0  0  0  0  0  0  0
   -3.6792   -2.4656   -5.8248 O   0  0  0  0  0  0  0  0  0  0  0  0
   -1.5412   -0.8654   -5.1650 N   0  0  0  0  0  0  0  0  0  0  0  0
    0.8755   -1.7775   -1.1632 C   0  0  0  0  0  0  0  0  0  0  0  0
   -0.2210   -2.6180   -1.2797 C   0  0  0  0  0  0  0  0  0  0  0  0
   -0.0470   -3.9789   -1.1136 C   0  0  0  0  0  0  0  0  0  0  0  0
    1.1437   -4.4791   -0.8470 N   0  0  0  0  0  0  0  0  0  0  0  0
    2.2084   -3.7101   -0.7292 C   0  0  0  0  0  0  0  0  0  0  0  0
    2.1124   -2.3406   -0.8884 C   0  0  0  0  0  0  0  0  0  0  0  0
    1.1498    2.2080   -0.4526 H   0  0  0  0  0  0  0  0  0  0  0  0
   -0.5595    2.1355   -0.9438 H   0  0  0  0  0  0  0  0  0  0  0  0
   -0.1340    2.2907    0.7775 H   0  0  0  0  0  0  0  0  0  0  0  0
    0.8292    0.0435    0.7889 H   0  0  0  0  0  0  0  0  0  0  0  0
   -0.8246   -0.0419    0.1362 H   0  0  0  0  0  0  0  0  0  0  0  0
    1.3576   -0.0399   -3.8412 H   0  0  0  0  0  0  0  0  0  0  0  0
    0.4710   -1.5740   -3.6715 H   0  0  0  0  0  0  0  0  0  0  0  0
    0.5764    1.6924   -5.2825 H   0  0  0  0  0  0  0  0  0  0  0  0
   -0.9111    2.3300   -7.1663 H   0  0  0  0  0  0  0  0  0  0  0  0
   -2.8271    0.8480   -7.7263 H   0  0  0  0  0  0  0  0  0  0  0  0
   -1.1988   -2.2143   -1.4972 H   0  0  0  0  0  0  0  0  0  0  0  0
   -0.8960   -4.6404   -1.2028 H   0  0  0  0  0  0  0  0  0  0  0  0
    3.1673   -4.1560   -0.5099 H   0  0  0  0  0  0  0  0  0  0  0  0
    2.9881   -1.7160   -0.7911 H   0  0  0  0  0  0  0  0  0  0  0  0
  1  2  1  0
  1 24  1  6
  1 25  1  0
  1 26  1  0
  2  3  1  0
  2 27  1  1
  2 28  1  0
  3  4  1  6
  3  5  1  0
  3 18  1  0
  5  6  1  1
  5  7  1  0
  5  8  1  0
  8  9  1  0
  8 29  1  6
  8 30  1  0
  9 17  2  0
  9 10  1  0
 10 11  2  0
 10 31  1  0
 11 12  1  0
 11 32  1  0
 12 13  2  0
 12 33  1  0
 13 14  1  0
 13 17  1  0
 14 15  2  0
 14 16  1  0
 18 23  2  0
 18 19  1  0
 19 20  2  0
 19 34  1  0
 20 21  1  0
 20 35  1  0
 21 22  2  0
 22 23  1  0
 22 36  1  0
 23 37  1  0
M  CHG  1   5   1
M  END
$$$$
