ZINC000065625727
     RDKit          3D

 62 63  0  0  0  0  0  0  0  0999 V2000
   -0.0187    1.5258    0.0104 C   0  0  1  0  0  0  0  0  0  0  0  0
    0.0021   -0.0041    0.0020 C   0  0  1  0  0  0  0  0  0  0  0  0
   -1.3723   -0.5112    0.0124 N   0  0  0  0  0  0  0  0  0  0  0  0
   -2.1099   -0.6542   -1.2453 C   0  0  1  0  0  0  0  0  0  0  0  0
   -1.7727   -2.0031   -1.8836 C   0  0  1  0  0  0  0  0  0  0  0  0
   -2.0922   -0.9227    1.4458 S   0  0  1  0  0  0  0  0  0  0  0  0
   -3.1196   -1.8512    1.1269 O   0  0  0  0  0  0  0  0  0  0  0  0
   -1.0393   -1.2108    2.3555 O   0  0  0  0  0  0  0  0  0  0  0  0
   -2.8978    0.5199    2.0580 C   0  0  0  0  0  0  0  0  0  0  0  0
   -2.2156    1.3954    2.8820 C   0  0  0  0  0  0  0  0  0  0  0  0
   -2.8476    2.5271    3.3622 C   0  0  0  0  0  0  0  0  0  0  0  0
   -4.1616    2.7836    3.0181 C   0  0  0  0  0  0  0  0  0  0  0  0
   -4.8508    4.0171    3.5421 C   0  0  1  0  0  0  0  0  0  0  0  0
   -4.6371    5.1747    2.5647 C   0  0  1  0  0  0  0  0  0  0  0  0
   -5.3263    6.4082    3.0886 C   0  0  0  0  0  0  0  0  0  0  0  0
   -5.9290    6.3657    4.1402 O   0  0  0  0  0  0  0  0  0  0  0  0
   -5.2728    7.5587    2.3886 N   0  0  0  0  0  0  0  0  0  0  0  0
   -6.0301    8.9142    2.9643 S   0  0  1  0  0  0  0  0  0  0  0  0
   -7.4241    8.6404    2.9295 O   0  0  0  0  0  0  0  0  0  0  0  0
   -5.3405    9.2862    4.1498 O   0  0  0  0  0  0  0  0  0  0  0  0
   -5.7643   10.1270    1.8686 N   0  0  0  0  0  0  0  0  0  0  0  0
   -4.5847   10.9946    1.9929 C   0  0  1  0  0  0  0  0  0  0  0  0
   -3.3326   10.1767    1.7031 C   0  0  1  0  0  0  0  0  0  0  0  0
   -3.2600    9.8814    0.1955 C   0  0  1  0  0  0  0  0  0  0  0  0
   -4.2226    8.7498   -0.1467 C   0  0  1  0  0  0  0  0  0  0  0  0
   -5.3654    9.2591   -1.0440 C   0  0  1  0  0  0  0  0  0  0  0  0
   -5.8874   10.5920   -0.5073 C   0  0  1  0  0  0  0  0  0  0  0  0
   -6.6918   10.3408    0.7704 C   0  0  1  0  0  0  0  0  0  0  0  0
   -4.8434    1.9088    2.1930 C   0  0  0  0  0  0  0  0  0  0  0  0
   -4.2102    0.7790    1.7096 C   0  0  0  0  0  0  0  0  0  0  0  0
    1.0039    1.9031    0.0027 H   0  0  0  0  0  0  0  0  0  0  0  0
   -0.5459    1.8868   -0.8726 H   0  0  0  0  0  0  0  0  0  0  0  0
   -0.5289    1.8773    0.9072 H   0  0  0  0  0  0  0  0  0  0  0  0
    0.5123   -0.3556   -0.8948 H   0  0  0  0  0  0  0  0  0  0  0  0
    0.5293   -0.3651    0.8851 H   0  0  0  0  0  0  0  0  0  0  0  0
   -3.1804   -0.6037   -1.0465 H   0  0  0  0  0  0  0  0  0  0  0  0
   -1.8283    0.1500   -1.9251 H   0  0  0  0  0  0  0  0  0  0  0  0
   -0.7022   -2.0536   -2.0825 H   0  0  0  0  0  0  0  0  0  0  0  0
   -2.0544   -2.8073   -1.2038 H   0  0  0  0  0  0  0  0  0  0  0  0
   -2.3215   -2.1096   -2.8194 H   0  0  0  0  0  0  0  0  0  0  0  0
   -1.1890    1.1950    3.1509 H   0  0  0  0  0  0  0  0  0  0  0  0
   -2.3149    3.2108    4.0066 H   0  0  0  0  0  0  0  0  0  0  0  0
   -5.9180    3.8210    3.6452 H   0  0  0  0  0  0  0  0  0  0  0  0
   -4.4342    4.2808    4.5142 H   0  0  0  0  0  0  0  0  0  0  0  0
   -3.5699    5.3709    2.4615 H   0  0  0  0  0  0  0  0  0  0  0  0
   -5.0537    4.9110    1.5925 H   0  0  0  0  0  0  0  0  0  0  0  0
   -4.6581   11.8143    1.2782 H   0  0  0  0  0  0  0  0  0  0  0  0
   -4.5321   11.3956    3.0051 H   0  0  0  0  0  0  0  0  0  0  0  0
   -2.4507   10.7408    2.0067 H   0  0  0  0  0  0  0  0  0  0  0  0
   -3.3743    9.2385    2.2565 H   0  0  0  0  0  0  0  0  0  0  0  0
   -3.5365   10.7752   -0.3637 H   0  0  0  0  0  0  0  0  0  0  0  0
   -2.2444    9.5869   -0.0687 H   0  0  0  0  0  0  0  0  0  0  0  0
   -3.6796    7.9623   -0.6693 H   0  0  0  0  0  0  0  0  0  0  0  0
   -4.6425    8.3449    0.7741 H   0  0  0  0  0  0  0  0  0  0  0  0
   -4.9947    9.3974   -2.0597 H   0  0  0  0  0  0  0  0  0  0  0  0
   -6.1745    8.5288   -1.0504 H   0  0  0  0  0  0  0  0  0  0  0  0
   -5.0465   11.2491   -0.2857 H   0  0  0  0  0  0  0  0  0  0  0  0
   -6.5271   11.0598   -1.2556 H   0  0  0  0  0  0  0  0  0  0  0  0
   -7.3197    9.4593    0.6414 H   0  0  0  0  0  0  0  0  0  0  0  0
   -7.3158   11.2078    0.9876 H   0  0  0  0  0  0  0  0  0  0  0  0
   -5.8699    2.1094    1.9238 H   0  0  0  0  0  0  0  0  0  0  0  0
   -4.7428    0.0956    1.0650 H   0  0  0  0  0  0  0  0  0  0  0  0
  1  2  1  0
  1 31  1  6
  1 32  1  0
  1 33  1  0
  2  3  1  0
  2 34  1  6
  2 35  1  0
  3  4  1  0
  6  3  1  6
  4  5  1  0
  4 36  1  1
  4 37  1  0
  5 38  1  6
  5 39  1  0
  5 40  1  0
  6  7  2  0
  6  8  2  0
  6  9  1  0
  9 30  2  0
  9 10  1  0
 10 11  2  0
 10 41  1  0
 11 12  1  0
 11 42  1  0
 12 13  1  0
 12 29  2  0
 13 14  1  0
 13 43  1  1
 13 44  1  0
 14 15  1  0
 14 45  1  6
 14 46  1  0
 15 16  2  0
 15 17  1  0
 18 17  1  6
 18 19  2  0
 18 20  2  0
 18 21  1  0
 21 28  1  0
 21 22  1  0
 22 23  1  0
 22 47  1  6
 22 48  1  0
 23 24  1  0
 23 49  1  1
 23 50  1  0
 24 25  1  0
 24 51  1  6
 24 52  1  0
 25 26  1  0
 25 53  1  6
 25 54  1  0
 26 27  1  0
 26 55  1  6
 26 56  1  0
 27 28  1  0
 27 57  1  1
 27 58  1  0
 28 59  1  6
 28 60  1  0
 29 30  1  0
 29 61  1  0
 30 62  1  0
M  END
$$$$
