ZINC000020032655
     RDKit          3D

 55 56  0  0  0  0  0  0  0  0999 V2000
   -0.0187    1.5258    0.0104 C   0  0  1  0  0  0  0  0  0  0  0  0
    0.0021   -0.0041    0.0020 C   0  0  1  0  0  0  0  0  0  0  0  0
    0.7106   -0.4894    1.1889 N   0  0  0  0  0  0  0  0  0  0  0  0
   -0.0062   -0.6460    2.4569 C   0  0  1  0  0  0  0  0  0  0  0  0
   -0.6935   -2.0126    2.4888 C   0  0  1  0  0  0  0  0  0  0  0  0
    2.3218   -0.8609    1.0971 S   0  0  1  0  0  0  0  0  0  0  0  0
    2.5823   -1.7795    2.1496 O   0  0  0  0  0  0  0  0  0  0  0  0
    2.5905   -1.1471   -0.2686 O   0  0  0  0  0  0  0  0  0  0  0  0
    3.2182    0.6060    1.4837 C   0  0  0  0  0  0  0  0  0  0  0  0
    3.5682    1.4865    0.4768 C   0  0  0  0  0  0  0  0  0  0  0  0
    4.2709    2.6372    0.7772 C   0  0  0  0  0  0  0  0  0  0  0  0
    4.6251    2.9093    2.0907 C   0  0  0  0  0  0  0  0  0  0  0  0
    5.3160    4.0409    2.3889 O   0  0  0  0  0  0  0  0  0  0  0  0
    5.6468    4.2561    3.7624 C   0  0  1  0  0  0  0  0  0  0  0  0
    6.4063    5.5505    3.8993 C   0  0  0  0  0  0  0  0  0  0  0  0
    6.6411    6.2226    2.9174 O   0  0  0  0  0  0  0  0  0  0  0  0
    6.8245    5.9613    5.1129 N   0  0  0  0  0  0  0  0  0  0  0  0
    7.5628    7.2197    5.2460 C   0  0  1  0  0  0  0  0  0  0  0  0
    7.9116    7.4466    6.6944 C   0  0  0  0  0  0  0  0  0  0  0  0
    7.0382    8.1341    7.5162 C   0  0  0  0  0  0  0  0  0  0  0  0
    7.3581    8.3423    8.8448 C   0  0  0  0  0  0  0  0  0  0  0  0
    8.5514    7.8626    9.3517 C   0  0  0  0  0  0  0  0  0  0  0  0
    8.9595    8.1284   11.0450 S   0  0  1  0  0  0  0  0  0  0  0  0
    8.3628    6.8424   11.9008 N   0  0  0  0  0  0  0  0  0  0  0  0
   10.3754    8.0474   11.1340 O   0  0  0  0  0  0  0  0  0  0  0  0
    8.2184    9.2667   11.4625 O   0  0  0  0  0  0  0  0  0  0  0  0
    9.4242    7.1739    8.5302 C   0  0  0  0  0  0  0  0  0  0  0  0
    9.1025    6.9624    7.2026 C   0  0  0  0  0  0  0  0  0  0  0  0
    4.2723    2.0244    3.0993 C   0  0  0  0  0  0  0  0  0  0  0  0
    3.5654    0.8775    2.7942 C   0  0  0  0  0  0  0  0  0  0  0  0
    1.0039    1.9031    0.0027 H   0  0  0  0  0  0  0  0  0  0  0  0
   -0.5459    1.8868   -0.8726 H   0  0  0  0  0  0  0  0  0  0  0  0
   -0.5289    1.8773    0.9072 H   0  0  0  0  0  0  0  0  0  0  0  0
   -1.0205   -0.3814    0.0098 H   0  0  0  0  0  0  0  0  0  0  0  0
    0.5123   -0.3556   -0.8948 H   0  0  0  0  0  0  0  0  0  0  0  0
    0.6997   -0.5749    3.2845 H   0  0  0  0  0  0  0  0  0  0  0  0
   -0.7557    0.1399    2.5501 H   0  0  0  0  0  0  0  0  0  0  0  0
   -1.3993   -2.0837    1.6613 H   0  0  0  0  0  0  0  0  0  0  0  0
    0.0560   -2.7985    2.3957 H   0  0  0  0  0  0  0  0  0  0  0  0
   -1.2268   -2.1291    3.4323 H   0  0  0  0  0  0  0  0  0  0  0  0
    3.2922    1.2742   -0.5456 H   0  0  0  0  0  0  0  0  0  0  0  0
    4.5447    3.3243   -0.0097 H   0  0  0  0  0  0  0  0  0  0  0  0
    4.7320    4.3074    4.3527 H   0  0  0  0  0  0  0  0  0  0  0  0
    6.2647    3.4327    4.1206 H   0  0  0  0  0  0  0  0  0  0  0  0
    6.6366    5.4238    5.8982 H   0  0  0  0  0  0  0  0  0  0  0  0
    8.4776    7.1684    4.6557 H   0  0  0  0  0  0  0  0  0  0  0  0
    6.9449    8.0431    4.8878 H   0  0  0  0  0  0  0  0  0  0  0  0
    6.1059    8.5089    7.1201 H   0  0  0  0  0  0  0  0  0  0  0  0
    6.6760    8.8800    9.4866 H   0  0  0  0  0  0  0  0  0  0  0  0
    7.8906    6.1308   11.4408 H   0  0  0  0  0  0  0  0  0  0  0  0
    8.4856    6.8006   12.8621 H   0  0  0  0  0  0  0  0  0  0  0  0
   10.3563    6.7988    8.9264 H   0  0  0  0  0  0  0  0  0  0  0  0
    9.7844    6.4243    6.5608 H   0  0  0  0  0  0  0  0  0  0  0  0
    4.5471    2.2339    4.1225 H   0  0  0  0  0  0  0  0  0  0  0  0
    3.2902    0.1885    3.5791 H   0  0  0  0  0  0  0  0  0  0  0  0
  1  2  1  0
  1 31  1  6
  1 32  1  0
  1 33  1  0
  2  3  1  0
  2 34  1  1
  2 35  1  0
  3  4  1  0
  6  3  1  6
  4  5  1  0
  4 36  1  1
  4 37  1  0
  5 38  1  6
  5 39  1  0
  5 40  1  0
  6  7  2  0
  6  8  2  0
  6  9  1  0
  9 30  2  0
  9 10  1  0
 10 11  2  0
 10 41  1  0
 11 12  1  0
 11 42  1  0
 12 13  1  0
 12 29  2  0
 13 14  1  0
 14 15  1  0
 14 43  1  1
 14 44  1  0
 15 16  2  0
 15 17  1  0
 17 18  1  0
 17 45  1  0
 18 19  1  0
 18 46  1  6
 18 47  1  0
 19 28  2  0
 19 20  1  0
 20 21  2  0
 20 48  1  0
 21 22  1  0
 21 49  1  0
 22 23  1  0
 22 27  2  0
 23 24  1  1
 23 25  2  0
 23 26  2  0
 24 50  1  0
 24 51  1  0
 27 28  1  0
 27 52  1  0
 28 53  1  0
 29 30  1  0
 29 54  1  0
 30 55  1  0
M  END
$$$$
