ZINC000161799806
     RDKit          3D

 37 38  0  0  1  0  0  0  0  0999 V2000
   -0.0187    1.5258    0.0104 C   0  0  1  0  0  0  0  0  0  0  0  0
    0.0021   -0.0041    0.0020 C   0  0  1  0  0  0  0  0  0  0  0  0
   -1.3383   -0.4993    0.0106 O   0  0  0  0  0  0  0  0  0  0  0  0
    0.7218   -0.4982   -1.2549 C   0  0  1  0  0  0  0  0  0  0  0  0
    0.7144   -2.0284   -1.2807 C   0  0  1  0  0  0  0  0  0  0  0  0
    1.4633   -2.5595   -0.0544 C   0  0  1  0  0  0  0  0  0  0  0  0
    0.8674   -1.9735    1.1540 N   0  0  0  0  0  0  0  0  0  0  0  0
    0.3465   -2.9416    2.3925 S   0  0  1  0  0  0  0  0  0  0  0  0
   -0.6289   -2.1925    3.1043 O   0  0  0  0  0  0  0  0  0  0  0  0
    0.0836   -4.2162    1.8221 O   0  0  0  0  0  0  0  0  0  0  0  0
    1.7063   -3.1592    3.4917 C   0  0  0  0  0  0  0  0  0  0  0  0
    2.5842   -4.2106    3.3053 C   0  0  0  0  0  0  0  0  0  0  0  0
    3.6510   -4.3814    4.1677 C   0  0  0  0  0  0  0  0  0  0  0  0
    3.8402   -3.5004    5.2161 C   0  0  0  0  0  0  0  0  0  0  0  0
    5.0029   -3.6869    6.1565 C   0  0  1  0  0  0  0  0  0  0  0  0
    6.1113   -2.9834    5.6729 F   0  0  0  0  0  0  0  0  0  0  0  0
    4.6601   -3.2031    7.4236 F   0  0  0  0  0  0  0  0  0  0  0  0
    5.3168   -5.0473    6.2460 F   0  0  0  0  0  0  0  0  0  0  0  0
    2.9630   -2.4483    5.4016 C   0  0  0  0  0  0  0  0  0  0  0  0
    1.8984   -2.2753    4.5370 C   0  0  0  0  0  0  0  0  0  0  0  0
    0.7429   -0.5122    1.2429 C   0  0  1  0  0  0  0  0  0  0  0  0
    1.0039    1.9031    0.0027 H   0  0  0  0  0  0  0  0  0  0  0  0
   -0.5459    1.8868   -0.8726 H   0  0  0  0  0  0  0  0  0  0  0  0
   -0.5289    1.8773    0.9072 H   0  0  0  0  0  0  0  0  0  0  0  0
   -1.8668   -0.2172   -0.7485 H   0  0  0  0  0  0  0  0  0  0  0  0
    0.2109   -0.1176   -2.1393 H   0  0  0  0  0  0  0  0  0  0  0  0
    1.7513   -0.1402   -1.2483 H   0  0  0  0  0  0  0  0  0  0  0  0
   -0.3146   -2.3876   -1.2624 H   0  0  0  0  0  0  0  0  0  0  0  0
    1.2066   -2.3794   -2.1878 H   0  0  0  0  0  0  0  0  0  0  0  0
    1.3762   -3.6453   -0.0150 H   0  0  0  0  0  0  0  0  0  0  0  0
    2.5142   -2.2771   -0.1174 H   0  0  0  0  0  0  0  0  0  0  0  0
    2.4364   -4.8988    2.4863 H   0  0  0  0  0  0  0  0  0  0  0  0
    4.3365   -5.2032    4.0226 H   0  0  0  0  0  0  0  0  0  0  0  0
    3.1110   -1.7598    6.2205 H   0  0  0  0  0  0  0  0  0  0  0  0
    1.2131   -1.4532    4.6819 H   0  0  0  0  0  0  0  0  0  0  0  0
    1.7350   -0.0629    1.2857 H   0  0  0  0  0  0  0  0  0  0  0  0
    0.1806   -0.2472    2.1382 H   0  0  0  0  0  0  0  0  0  0  0  0
  1 22  1  6
  1 23  1  0
  1 24  1  0
  2  1  1  0
  2 21  1  0
  2  3  1  1
  2  4  1  0
  3 25  1  0
  4  5  1  0
  4 26  1  6
  4 27  1  0
  5  6  1  0
  5 28  1  1
  5 29  1  0
  6  7  1  0
  6 30  1  1
  6 31  1  0
  8  7  1  6
  7 21  1  0
  8  9  2  0
  8 10  2  0
  8 11  1  0
 11 20  2  0
 11 12  1  0
 12 13  2  0
 12 32  1  0
 13 14  1  0
 13 33  1  0
 14 15  1  0
 14 19  2  0
 15 16  1  6
 15 17  1  0
 15 18  1  0
 19 20  1  0
 19 34  1  0
 20 35  1  0
 21 36  1  1
 21 37  1  0
M  END
$$$$
