ZINC000089904835
     RDKit          3D

 51 53  0  0  1  0  0  0  0  0999 V2000
    7.9262   -5.8079   -1.7298 C   0  0  1  0  0  0  0  0  0  0  0  0
    7.4406   -5.8723   -3.0723 O   0  0  0  0  0  0  0  0  0  0  0  0
    6.2526   -5.2642   -3.3284 C   0  0  0  0  0  0  0  0  0  0  0  0
    5.5710   -4.6139   -2.3100 C   0  0  0  0  0  0  0  0  0  0  0  0
    4.3637   -3.9962   -2.5730 C   0  0  0  0  0  0  0  0  0  0  0  0
    3.8343   -4.0259   -3.8500 C   0  0  0  0  0  0  0  0  0  0  0  0
    2.5169   -3.3516   -4.1340 C   0  0  2  0  0  0  0  0  0  0  0  0
    2.7583   -2.0910   -4.9668 C   0  0  1  0  0  0  0  0  0  0  0  0
    1.8887   -2.9949   -2.9010 O   0  0  0  0  0  0  0  0  0  0  0  0
    1.6105   -4.3095   -4.9097 C   0  0  2  0  0  0  0  0  0  0  0  0
    1.3754   -5.1776   -4.2939 H   0  0  0  0  0  0  0  0  0  0  0  0
    2.3127   -4.7613   -6.2075 C   0  0  1  0  0  0  0  0  0  0  0  0
    1.1515   -4.7988   -7.2360 C   0  0  1  0  0  0  0  0  0  0  0  0
    0.2866   -3.6002   -6.7723 C   0  0  1  0  0  0  0  0  0  0  0  0
    0.3706   -3.6210   -5.2974 N   0  0  0  0  0  0  0  0  0  0  0  0
   -0.7447   -2.9745   -4.2580 S   0  0  1  0  0  0  0  0  0  0  0  0
   -0.0154   -2.1905   -3.3238 O   0  0  0  0  0  0  0  0  0  0  0  0
   -1.7889   -2.4491   -5.0660 O   0  0  0  0  0  0  0  0  0  0  0  0
   -1.4447   -4.3105   -3.3471 C   0  0  0  0  0  0  0  0  0  0  0  0
   -2.5649   -4.9626   -3.8274 C   0  0  0  0  0  0  0  0  0  0  0  0
   -3.1141   -6.0108   -3.1128 C   0  0  0  0  0  0  0  0  0  0  0  0
   -2.5427   -6.4072   -1.9181 C   0  0  0  0  0  0  0  0  0  0  0  0
   -3.1416   -7.5495   -1.1389 C   0  0  1  0  0  0  0  0  0  0  0  0
   -2.5550   -8.7517   -1.5485 F   0  0  0  0  0  0  0  0  0  0  0  0
   -2.9057   -7.3570    0.2266 F   0  0  0  0  0  0  0  0  0  0  0  0
   -4.5203   -7.6004   -1.3712 F   0  0  0  0  0  0  0  0  0  0  0  0
   -1.4216   -5.7560   -1.4385 C   0  0  0  0  0  0  0  0  0  0  0  0
   -0.8702   -4.7103   -2.1550 C   0  0  0  0  0  0  0  0  0  0  0  0
    4.5118   -4.6730   -4.8668 C   0  0  0  0  0  0  0  0  0  0  0  0
    5.7220   -5.2877   -4.6101 C   0  0  0  0  0  0  0  0  0  0  0  0
    8.0628   -4.7654   -1.4425 H   0  0  0  0  0  0  0  0  0  0  0  0
    7.2062   -6.2781   -1.0601 H   0  0  0  0  0  0  0  0  0  0  0  0
    8.8801   -6.3312   -1.6630 H   0  0  0  0  0  0  0  0  0  0  0  0
    5.9837   -4.5910   -1.3122 H   0  0  0  0  0  0  0  0  0  0  0  0
    3.8327   -3.4898   -1.7805 H   0  0  0  0  0  0  0  0  0  0  0  0
    3.2374   -2.3631   -5.9073 H   0  0  0  0  0  0  0  0  0  0  0  0
    1.8054   -1.6033   -5.1723 H   0  0  0  0  0  0  0  0  0  0  0  0
    3.4040   -1.4086   -4.4142 H   0  0  0  0  0  0  0  0  0  0  0  0
    1.7053   -3.7467   -2.3211 H   0  0  0  0  0  0  0  0  0  0  0  0
    3.0707   -4.0379   -6.5078 H   0  0  0  0  0  0  0  0  0  0  0  0
    2.7508   -5.7518   -6.0843 H   0  0  0  0  0  0  0  0  0  0  0  0
    1.5221   -4.6443   -8.2494 H   0  0  0  0  0  0  0  0  0  0  0  0
    0.5952   -5.7333   -7.1633 H   0  0  0  0  0  0  0  0  0  0  0  0
    0.6913   -2.6666   -7.1634 H   0  0  0  0  0  0  0  0  0  0  0  0
   -0.7466   -3.7310   -7.0940 H   0  0  0  0  0  0  0  0  0  0  0  0
   -3.0113   -4.6529   -4.7608 H   0  0  0  0  0  0  0  0  0  0  0  0
   -3.9897   -6.5198   -3.4878 H   0  0  0  0  0  0  0  0  0  0  0  0
   -0.9750   -6.0659   -0.5053 H   0  0  0  0  0  0  0  0  0  0  0  0
    0.0056   -4.2015   -1.7803 H   0  0  0  0  0  0  0  0  0  0  0  0
    4.0964   -4.6945   -5.8635 H   0  0  0  0  0  0  0  0  0  0  0  0
    6.2509   -5.7930   -5.4047 H   0  0  0  0  0  0  0  0  0  0  0  0
  1  2  1  0
  1 31  1  1
  1 32  1  0
  1 33  1  0
  2  3  1  0
  3 30  2  0
  3  4  1  0
  4  5  2  0
  4 34  1  0
  5  6  1  0
  5 35  1  0
  6 29  2  0
  7  6  1  0
  7  8  1  0
  7  9  1  1
  7 10  1  0
  8 36  1  6
  8 37  1  0
  8 38  1  0
  9 39  1  0
 10 11  1  1
 10 15  1  0
 10 12  1  0
 12 13  1  0
 12 40  1  6
 12 41  1  0
 13 14  1  0
 13 42  1  6
 13 43  1  0
 14 15  1  0
 14 44  1  6
 14 45  1  0
 16 15  1  6
 16 17  2  0
 16 18  2  0
 16 19  1  0
 19 28  2  0
 19 20  1  0
 20 21  2  0
 20 46  1  0
 21 22  1  0
 21 47  1  0
 22 23  1  0
 22 27  2  0
 23 24  1  6
 23 25  1  0
 23 26  1  0
 27 28  1  0
 27 48  1  0
 28 49  1  0
 29 30  1  0
 29 50  1  0
 30 51  1  0
M  END
$$$$
