ZINC000096374458
     RDKit          3D

 53 54  0  0  0  0  0  0  0  0999 V2000
   -0.0187    1.5258    0.0104 C   0  0  1  0  0  0  0  0  0  0  0  0
    0.0021   -0.0041    0.0020 C   0  0  1  0  0  0  0  0  0  0  0  0
    0.7421   -0.5109    1.2415 C   0  0  1  0  0  0  0  0  0  0  0  0
   -1.4333   -0.5336    0.0129 C   0  0  1  0  0  0  0  0  0  0  0  0
   -2.2655   -0.0565   -1.5267 S   0  0  1  0  0  0  0  0  0  0  0  0
   -2.3878    1.3589   -1.5554 O   0  0  0  0  0  0  0  0  0  0  0  0
   -1.6287   -0.7200   -2.6100 O   0  0  0  0  0  0  0  0  0  0  0  0
   -3.9157   -0.7746   -1.2988 C   0  0  1  0  0  0  0  0  0  0  0  0
   -4.5660   -0.1722   -0.0513 C   0  0  1  0  0  0  0  0  0  0  0  0
   -5.9449   -0.8062    0.1576 C   0  0  1  0  0  0  0  0  0  0  0  0
   -6.7319   -0.6420   -1.0722 N   0  0  0  0  0  0  0  0  0  0  0  0
   -7.9549   -0.0769   -1.0345 C   0  0  0  0  0  0  0  0  0  0  0  0
   -8.4156    0.3018    0.0216 O   0  0  0  0  0  0  0  0  0  0  0  0
   -8.7499    0.0844   -2.3045 C   0  0  1  0  0  0  0  0  0  0  0  0
  -10.0911    0.7483   -1.9858 C   0  0  1  0  0  0  0  0  0  0  0  0
  -10.8861    0.9096   -3.2558 C   0  0  0  0  0  0  0  0  0  0  0  0
  -10.7538    2.0587   -4.0127 C   0  0  0  0  0  0  0  0  0  0  0  0
  -11.4831    2.2067   -5.1777 C   0  0  0  0  0  0  0  0  0  0  0  0
  -12.3442    1.2054   -5.5860 C   0  0  0  0  0  0  0  0  0  0  0  0
  -13.1396    1.3670   -6.8558 C   0  0  1  0  0  0  0  0  0  0  0  0
  -12.4079    0.8550   -7.9327 F   0  0  0  0  0  0  0  0  0  0  0  0
  -14.3482    0.6719   -6.7406 F   0  0  0  0  0  0  0  0  0  0  0  0
  -13.4010    2.7241   -7.0728 F   0  0  0  0  0  0  0  0  0  0  0  0
  -12.4754    0.0557   -4.8298 C   0  0  0  0  0  0  0  0  0  0  0  0
  -11.7433   -0.0939   -3.6668 C   0  0  0  0  0  0  0  0  0  0  0  0
   -6.1602   -1.1052   -2.3439 C   0  0  1  0  0  0  0  0  0  0  0  0
   -4.7789   -0.4680   -2.5247 C   0  0  1  0  0  0  0  0  0  0  0  0
    1.0039    1.9031    0.0027 H   0  0  0  0  0  0  0  0  0  0  0  0
   -0.5459    1.8868   -0.8726 H   0  0  0  0  0  0  0  0  0  0  0  0
   -0.5289    1.8773    0.9072 H   0  0  0  0  0  0  0  0  0  0  0  0
    0.5123   -0.3556   -0.8948 H   0  0  0  0  0  0  0  0  0  0  0  0
    0.2319   -0.1594    2.1383 H   0  0  0  0  0  0  0  0  0  0  0  0
    0.7568   -1.6008    1.2356 H   0  0  0  0  0  0  0  0  0  0  0  0
    1.7647   -0.1336    1.2338 H   0  0  0  0  0  0  0  0  0  0  0  0
   -1.4190   -1.6203    0.0965 H   0  0  0  0  0  0  0  0  0  0  0  0
   -1.9701   -0.1109    0.8621 H   0  0  0  0  0  0  0  0  0  0  0  0
   -3.8282   -1.8543   -1.1771 H   0  0  0  0  0  0  0  0  0  0  0  0
   -3.9388   -0.3709    0.8179 H   0  0  0  0  0  0  0  0  0  0  0  0
   -4.6765    0.9042   -0.1823 H   0  0  0  0  0  0  0  0  0  0  0  0
   -5.8295   -1.8672    0.3787 H   0  0  0  0  0  0  0  0  0  0  0  0
   -6.4529   -0.3114    0.9853 H   0  0  0  0  0  0  0  0  0  0  0  0
   -8.1935    0.7074   -3.0048 H   0  0  0  0  0  0  0  0  0  0  0  0
   -8.9259   -0.8947   -2.7498 H   0  0  0  0  0  0  0  0  0  0  0  0
  -10.6475    0.1253   -1.2855 H   0  0  0  0  0  0  0  0  0  0  0  0
   -9.9151    1.7274   -1.5404 H   0  0  0  0  0  0  0  0  0  0  0  0
  -10.0811    2.8410   -3.6937 H   0  0  0  0  0  0  0  0  0  0  0  0
  -11.3803    3.1048   -5.7687 H   0  0  0  0  0  0  0  0  0  0  0  0
  -13.1479   -0.7267   -5.1490 H   0  0  0  0  0  0  0  0  0  0  0  0
  -11.8458   -0.9922   -3.0760 H   0  0  0  0  0  0  0  0  0  0  0  0
   -6.0625   -2.1907   -2.3268 H   0  0  0  0  0  0  0  0  0  0  0  0
   -6.8104   -0.8078   -3.1667 H   0  0  0  0  0  0  0  0  0  0  0  0
   -4.8874    0.6113   -2.6325 H   0  0  0  0  0  0  0  0  0  0  0  0
   -4.3034   -0.8771   -3.4161 H   0  0  0  0  0  0  0  0  0  0  0  0
  1  2  1  0
  1 28  1  6
  1 29  1  0
  1 30  1  0
  2  3  1  0
  2  4  1  0
  2 31  1  6
  3 32  1  1
  3 33  1  0
  3 34  1  0
  4  5  1  0
  4 35  1  1
  4 36  1  0
  5  6  2  0
  5  7  2  0
  5  8  1  1
  8 27  1  0
  8  9  1  0
  8 37  1  1
  9 10  1  0
  9 38  1  1
  9 39  1  0
 10 11  1  0
 10 40  1  1
 10 41  1  0
 11 12  1  0
 11 26  1  0
 12 13  2  0
 12 14  1  0
 14 15  1  0
 14 42  1  6
 14 43  1  0
 15 16  1  0
 15 44  1  1
 15 45  1  0
 16 25  2  0
 16 17  1  0
 17 18  2  0
 17 46  1  0
 18 19  1  0
 18 47  1  0
 19 20  1  0
 19 24  2  0
 20 21  1  6
 20 22  1  0
 20 23  1  0
 24 25  1  0
 24 48  1  0
 25 49  1  0
 26 27  1  0
 26 50  1  1
 26 51  1  0
 27 52  1  6
 27 53  1  0
M  END
$$$$
