ZINC000009227410
     RDKit          3D

 52 53  0  0  1  0  0  0  0  0999 V2000
   -0.0187    1.5258    0.0104 C   0  0  1  0  0  0  0  0  0  0  0  0
    0.0021   -0.0041    0.0020 C   0  0  1  0  0  0  0  0  0  0  0  0
    0.6878   -0.4765   -1.2033 N   0  0  0  0  0  0  0  0  0  0  0  0
    2.1478   -0.5966   -1.2159 C   0  0  1  0  0  0  0  0  0  0  0  0
    2.5471   -1.9310   -0.6407 C   0  0  0  0  0  0  0  0  0  0  0  0
    1.6959   -2.7055   -0.2578 O   0  0  0  0  0  0  0  0  0  0  0  0
    3.8501   -2.2637   -0.5516 N   0  0  0  0  0  0  0  0  0  0  0  0
    4.2383   -3.5610    0.0076 C   0  0  1  0  0  0  0  0  0  0  0  0
    3.5479   -3.8338    0.8058 H   0  0  0  0  0  0  0  0  0  0  0  0
    4.1930   -4.6243   -1.0915 C   0  0  1  0  0  0  0  0  0  0  0  0
    5.6580   -3.4694    0.5705 C   0  0  1  0  0  0  0  0  0  0  0  0
    5.6766   -2.4974    1.7519 C   0  0  1  0  0  0  0  0  0  0  0  0
    7.0750   -2.4073    2.3063 C   0  0  0  0  0  0  0  0  0  0  0  0
    7.4801   -3.2738    3.3042 C   0  0  0  0  0  0  0  0  0  0  0  0
    8.7629   -3.1911    3.8128 C   0  0  0  0  0  0  0  0  0  0  0  0
    9.6407   -2.2422    3.3230 C   0  0  0  0  0  0  0  0  0  0  0  0
    9.2359   -1.3763    2.3244 C   0  0  0  0  0  0  0  0  0  0  0  0
    7.9545   -1.4618    1.8129 C   0  0  0  0  0  0  0  0  0  0  0  0
   -0.1875   -0.8749   -2.5515 S   0  0  1  0  0  0  0  0  0  0  0  0
    0.6166   -1.7761   -3.3001 O   0  0  0  0  0  0  0  0  0  0  0  0
   -1.4970   -1.1925   -2.1004 O   0  0  0  0  0  0  0  0  0  0  0  0
   -0.3375    0.5853   -3.5262 C   0  0  0  0  0  0  0  0  0  0  0  0
   -1.4057    1.4405   -3.3300 C   0  0  0  0  0  0  0  0  0  0  0  0
   -1.5234    2.5861   -4.0947 C   0  0  0  0  0  0  0  0  0  0  0  0
   -0.5727    2.8767   -5.0552 C   0  0  0  0  0  0  0  0  0  0  0  0
    0.4960    2.0219   -5.2507 C   0  0  0  0  0  0  0  0  0  0  0  0
    0.6160    0.8786   -4.4831 C   0  0  0  0  0  0  0  0  0  0  0  0
    1.0039    1.9031    0.0027 H   0  0  0  0  0  0  0  0  0  0  0  0
   -0.5459    1.8868   -0.8726 H   0  0  0  0  0  0  0  0  0  0  0  0
   -0.5289    1.8773    0.9072 H   0  0  0  0  0  0  0  0  0  0  0  0
    0.5293   -0.3651    0.8851 H   0  0  0  0  0  0  0  0  0  0  0  0
   -1.0205   -0.3814    0.0098 H   0  0  0  0  0  0  0  0  0  0  0  0
    2.5098   -0.5199   -2.2412 H   0  0  0  0  0  0  0  0  0  0  0  0
    2.5833    0.2026   -0.6162 H   0  0  0  0  0  0  0  0  0  0  0  0
    4.5309   -1.6443   -0.8578 H   0  0  0  0  0  0  0  0  0  0  0  0
    3.1815   -4.6895   -1.4925 H   0  0  0  0  0  0  0  0  0  0  0  0
    4.8833   -4.3515   -1.8897 H   0  0  0  0  0  0  0  0  0  0  0  0
    4.4818   -5.5895   -0.6754 H   0  0  0  0  0  0  0  0  0  0  0  0
    5.9801   -4.4552    0.9059 H   0  0  0  0  0  0  0  0  0  0  0  0
    6.3342   -3.1109   -0.2057 H   0  0  0  0  0  0  0  0  0  0  0  0
    5.3545   -1.5116    1.4164 H   0  0  0  0  0  0  0  0  0  0  0  0
    5.0005   -2.8560    2.5280 H   0  0  0  0  0  0  0  0  0  0  0  0
    6.7943   -4.0152    3.6869 H   0  0  0  0  0  0  0  0  0  0  0  0
    9.0791   -3.8677    4.5929 H   0  0  0  0  0  0  0  0  0  0  0  0
   10.6426   -2.1771    3.7208 H   0  0  0  0  0  0  0  0  0  0  0  0
    9.9216   -0.6347    1.9420 H   0  0  0  0  0  0  0  0  0  0  0  0
    7.6383   -0.7852    1.0327 H   0  0  0  0  0  0  0  0  0  0  0  0
   -2.1485    1.2135   -2.5796 H   0  0  0  0  0  0  0  0  0  0  0  0
   -2.3583    3.2539   -3.9419 H   0  0  0  0  0  0  0  0  0  0  0  0
   -0.6651    3.7713   -5.6531 H   0  0  0  0  0  0  0  0  0  0  0  0
    1.2386    2.2488   -6.0014 H   0  0  0  0  0  0  0  0  0  0  0  0
    1.4509    0.2108   -4.6359 H   0  0  0  0  0  0  0  0  0  0  0  0
  1  2  1  0
  1 28  1  6
  1 29  1  0
  1 30  1  0
  2  3  1  0
  2 31  1  1
  2 32  1  0
  3  4  1  0
 19  3  1  1
  4  5  1  0
  4 33  1  6
  4 34  1  0
  5  6  2  0
  5  7  1  0
  7  8  1  0
  7 35  1  0
  8  9  1  1
  8 10  1  0
  8 11  1  0
 10 36  1  6
 10 37  1  0
 10 38  1  0
 11 12  1  0
 11 39  1  1
 11 40  1  0
 12 13  1  0
 12 41  1  6
 12 42  1  0
 13 18  2  0
 13 14  1  0
 14 15  2  0
 14 43  1  0
 15 16  1  0
 15 44  1  0
 16 17  2  0
 16 45  1  0
 17 18  1  0
 17 46  1  0
 18 47  1  0
 19 20  2  0
 19 21  2  0
 19 22  1  0
 22 27  2  0
 22 23  1  0
 23 24  2  0
 23 48  1  0
 24 25  1  0
 24 49  1  0
 25 26  2  0
 25 50  1  0
 26 27  1  0
 26 51  1  0
 27 52  1  0
M  END
$$$$
