ZINC000028207179
     RDKit          3D

 43 43  0  0  1  0  0  0  0  0999 V2000
   -0.0187    1.5258    0.0104 C   0  0  1  0  0  0  0  0  0  0  0  0
    0.0021   -0.0041    0.0020 C   0  0  1  0  0  0  0  0  0  0  0  0
   -1.4333   -0.5336    0.0129 C   0  0  1  0  0  0  0  0  0  0  0  0
   -1.9862   -0.1019   -0.8214 H   0  0  0  0  0  0  0  0  0  0  0  0
   -1.4157   -2.0577   -0.1212 C   0  0  1  0  0  0  0  0  0  0  0  0
   -2.0815   -0.1618    1.2729 N   0  0  0  0  0  0  0  0  0  0  0  0
   -3.4235   -0.0535    1.3341 C   0  0  0  0  0  0  0  0  0  0  0  0
   -4.0945   -0.2639    0.3460 O   0  0  0  0  0  0  0  0  0  0  0  0
   -4.0903    0.3291    2.6303 C   0  0  1  0  0  0  0  0  0  0  0  0
   -5.5059    0.3776    2.4416 O   0  0  0  0  0  0  0  0  0  0  0  0
   -6.2613    0.7100    3.5213 C   0  0  0  0  0  0  0  0  0  0  0  0
   -5.6521    0.9895    4.7360 C   0  0  0  0  0  0  0  0  0  0  0  0
   -6.4221    1.3276    5.8319 C   0  0  0  0  0  0  0  0  0  0  0  0
   -7.7989    1.3872    5.7191 C   0  0  0  0  0  0  0  0  0  0  0  0
   -8.7782    1.8182    7.1190 S   0  0  1  0  0  0  0  0  0  0  0  0
  -10.0713    1.2768    6.8862 O   0  0  0  0  0  0  0  0  0  0  0  0
   -7.9993    1.5048    8.2655 O   0  0  0  0  0  0  0  0  0  0  0  0
   -8.9518    3.4651    7.1075 N   0  0  0  0  0  0  0  0  0  0  0  0
  -10.0803    4.0778    6.4023 C   0  0  1  0  0  0  0  0  0  0  0  0
   -7.9768    4.3092    7.8025 C   0  0  1  0  0  0  0  0  0  0  0  0
   -8.4084    1.1095    4.5095 C   0  0  0  0  0  0  0  0  0  0  0  0
   -7.6425    0.7760    3.4093 C   0  0  0  0  0  0  0  0  0  0  0  0
    1.0039    1.9031    0.0027 H   0  0  0  0  0  0  0  0  0  0  0  0
   -0.5459    1.8868   -0.8726 H   0  0  0  0  0  0  0  0  0  0  0  0
   -0.5289    1.8773    0.9072 H   0  0  0  0  0  0  0  0  0  0  0  0
    0.5123   -0.3556   -0.8948 H   0  0  0  0  0  0  0  0  0  0  0  0
    0.5293   -0.3651    0.8851 H   0  0  0  0  0  0  0  0  0  0  0  0
   -0.9334   -2.3344   -1.0587 H   0  0  0  0  0  0  0  0  0  0  0  0
   -0.8628   -2.4894    0.7131 H   0  0  0  0  0  0  0  0  0  0  0  0
   -2.4383   -2.4349   -0.1135 H   0  0  0  0  0  0  0  0  0  0  0  0
   -1.5448    0.0065    2.0632 H   0  0  0  0  0  0  0  0  0  0  0  0
   -3.8507   -0.4106    3.3943 H   0  0  0  0  0  0  0  0  0  0  0  0
   -3.7323    1.3084    2.9478 H   0  0  0  0  0  0  0  0  0  0  0  0
   -4.5768    0.9424    4.8248 H   0  0  0  0  0  0  0  0  0  0  0  0
   -5.9484    1.5453    6.7777 H   0  0  0  0  0  0  0  0  0  0  0  0
  -10.9248    4.1762    7.0844 H   0  0  0  0  0  0  0  0  0  0  0  0
   -9.7898    5.0636    6.0391 H   0  0  0  0  0  0  0  0  0  0  0  0
  -10.3659    3.4494    5.5587 H   0  0  0  0  0  0  0  0  0  0  0  0
   -7.1704    4.5721    7.1179 H   0  0  0  0  0  0  0  0  0  0  0  0
   -8.4670    5.2177    8.1525 H   0  0  0  0  0  0  0  0  0  0  0  0
   -7.5677    3.7660    8.6543 H   0  0  0  0  0  0  0  0  0  0  0  0
   -9.4840    1.1570    4.4239 H   0  0  0  0  0  0  0  0  0  0  0  0
   -8.1191    0.5592    2.4647 H   0  0  0  0  0  0  0  0  0  0  0  0
  1  2  1  0
  1 23  1  6
  1 24  1  0
  1 25  1  0
  2  3  1  0
  2 26  1  6
  2 27  1  0
  3  4  1  6
  3  5  1  0
  3  6  1  0
  5 28  1  6
  5 29  1  0
  5 30  1  0
  6  7  1  0
  6 31  1  0
  7  8  2  0
  7  9  1  0
  9 10  1  0
  9 32  1  1
  9 33  1  0
 10 11  1  0
 11 22  2  0
 11 12  1  0
 12 13  2  0
 12 34  1  0
 13 14  1  0
 13 35  1  0
 14 15  1  0
 14 21  2  0
 15 16  2  0
 15 17  2  0
 15 18  1  6
 18 19  1  0
 18 20  1  0
 19 36  1  1
 19 37  1  0
 19 38  1  0
 20 39  1  6
 20 40  1  0
 20 41  1  0
 21 22  1  0
 21 42  1  0
 22 43  1  0
M  END
$$$$
