ZINC000237435920
     RDKit          3D

 39 40  0  0  1  0  0  0  0  0999 V2000
   -0.6212    1.4397    0.6466 C   0  0  1  0  0  0  0  0  0  0  0  0
   -0.3251   -0.0251    0.3189 C   0  0  2  0  0  0  0  0  0  0  0  0
   -0.0812   -0.1208   -0.7392 H   0  0  0  0  0  0  0  0  0  0  0  0
   -1.5530   -0.8821    0.6423 C   0  0  1  0  0  0  0  0  0  0  0  0
   -1.2054   -2.3594    0.4449 C   0  0  2  0  0  0  0  0  0  0  0  0
   -0.8830   -2.5223   -0.5836 H   0  0  0  0  0  0  0  0  0  0  0  0
   -2.3902   -3.1823    0.7225 N   0  0  1  0  0  0  0  0  0  0  0  0
   -3.1342   -2.9244    0.0915 H   0  0  0  0  0  0  0  0  0  0  0  0
   -2.1612   -4.1563    0.5924 H   0  0  0  0  0  0  0  0  0  0  0  0
   -2.6890   -3.0313    1.6743 H   0  0  0  0  0  0  0  0  0  0  0  0
   -0.0769   -2.7519    1.4012 C   0  0  1  0  0  0  0  0  0  0  0  0
    1.1677   -1.9162    1.0863 C   0  0  1  0  0  0  0  0  0  0  0  0
    0.8079   -0.4919    1.1296 N   0  0  0  0  0  0  0  0  0  0  0  0
    1.6590    0.5649    2.0787 S   0  0  1  0  0  0  0  0  0  0  0  0
    0.7100    1.4767    2.6147 O   0  0  0  0  0  0  0  0  0  0  0  0
    2.5198   -0.2256    2.8871 O   0  0  0  0  0  0  0  0  0  0  0  0
    2.7011    1.5020    1.0108 C   0  0  0  0  0  0  0  0  0  0  0  0
    2.5076    2.8637    0.8765 C   0  0  0  0  0  0  0  0  0  0  0  0
    3.3252    3.5992    0.0385 C   0  0  0  0  0  0  0  0  0  0  0  0
    4.3363    2.9729   -0.6658 C   0  0  0  0  0  0  0  0  0  0  0  0
    5.2270    3.7752   -1.5790 C   0  0  1  0  0  0  0  0  0  0  0  0
    6.3339    4.2399   -0.8606 F   0  0  0  0  0  0  0  0  0  0  0  0
    5.6621    2.9667   -2.6345 F   0  0  0  0  0  0  0  0  0  0  0  0
    4.5119    4.8639   -2.0895 F   0  0  0  0  0  0  0  0  0  0  0  0
    4.5309    1.6108   -0.5323 C   0  0  0  0  0  0  0  0  0  0  0  0
    3.7171    0.8755    0.3107 C   0  0  0  0  0  0  0  0  0  0  0  0
    3.9609   -0.8350    0.4789 Cl  0  0  0  0  0  0  0  0  0  0  0  0
    0.2955    2.0234    0.5623 H   0  0  0  0  0  0  0  0  0  0  0  0
   -1.3632    1.8256   -0.0524 H   0  0  0  0  0  0  0  0  0  0  0  0
   -1.0068    1.5138    1.6634 H   0  0  0  0  0  0  0  0  0  0  0  0
   -1.8517   -0.7138    1.6770 H   0  0  0  0  0  0  0  0  0  0  0  0
   -2.3725   -0.6092   -0.0225 H   0  0  0  0  0  0  0  0  0  0  0  0
   -0.3896   -2.5660    2.4287 H   0  0  0  0  0  0  0  0  0  0  0  0
    0.1542   -3.8098    1.2764 H   0  0  0  0  0  0  0  0  0  0  0  0
    1.9417   -2.1203    1.8261 H   0  0  0  0  0  0  0  0  0  0  0  0
    1.5349   -2.1680    0.0913 H   0  0  0  0  0  0  0  0  0  0  0  0
    1.7173    3.3535    1.4260 H   0  0  0  0  0  0  0  0  0  0  0  0
    3.1736    4.6633   -0.0661 H   0  0  0  0  0  0  0  0  0  0  0  0
    5.3209    1.1216   -1.0826 H   0  0  0  0  0  0  0  0  0  0  0  0
  1  2  1  0
  1 28  1  1
  1 29  1  0
  1 30  1  0
  2  3  1  6
  2 13  1  0
  2  4  1  0
  4  5  1  0
  4 31  1  1
  4 32  1  0
  5  6  1  6
  5  7  1  0
  5 11  1  0
  7  8  1  6
  7  9  1  0
  7 10  1  0
 11 12  1  0
 11 33  1  1
 11 34  1  0
 12 13  1  0
 12 35  1  1
 12 36  1  0
 14 13  1  6
 14 15  2  0
 14 16  2  0
 14 17  1  0
 17 26  2  0
 17 18  1  0
 18 19  2  0
 18 37  1  0
 19 20  1  0
 19 38  1  0
 20 21  1  0
 20 25  2  0
 21 22  1  1
 21 23  1  0
 21 24  1  0
 25 26  1  0
 25 39  1  0
 26 27  1  0
M  CHG  1   7   1
M  END
$$$$
