ZINC000408610246
     RDKit          3D

 59 61  0  0  1  0  0  0  0  0999 V2000
   -0.0878    2.3221    0.7631 C   0  0  1  0  0  0  0  0  0  0  0  0
    0.0515    0.8185    0.5169 C   0  0  1  0  0  0  0  0  0  0  0  0
   -0.9379    0.3759    0.4020 H   0  0  0  0  0  0  0  0  0  0  0  0
    0.8663    0.5836   -0.7567 C   0  0  1  0  0  0  0  0  0  0  0  0
    0.9003   -0.9132   -1.0715 C   0  0  1  0  0  0  0  0  0  0  0  0
    1.7028   -1.1446   -2.3259 C   0  0  0  0  0  0  0  0  0  0  0  0
    1.0779   -1.1295   -3.5588 C   0  0  0  0  0  0  0  0  0  0  0  0
    1.8140   -1.3417   -4.7095 C   0  0  0  0  0  0  0  0  0  0  0  0
    3.1751   -1.5686   -4.6272 C   0  0  0  0  0  0  0  0  0  0  0  0
    3.8002   -1.5828   -3.3944 C   0  0  0  0  0  0  0  0  0  0  0  0
    3.0648   -1.3663   -2.2441 C   0  0  0  0  0  0  0  0  0  0  0  0
    0.7347    0.1986    1.6549 N   0  0  0  0  0  0  0  0  0  0  0  0
    0.0304   -0.1756    2.7414 C   0  0  0  0  0  0  0  0  0  0  0  0
   -1.1690    0.0009    2.7769 O   0  0  0  0  0  0  0  0  0  0  0  0
    0.7331   -0.8133    3.9121 C   0  0  1  0  0  0  0  0  0  0  0  0
   -0.2445   -1.1253    4.9576 N   0  0  0  0  0  0  0  0  0  0  0  0
   -0.9972   -2.3811    4.9055 C   0  0  1  0  0  0  0  0  0  0  0  0
   -0.1917   -3.4768    5.5548 C   0  0  0  0  0  0  0  0  0  0  0  0
   -0.4471   -3.8395    6.8635 C   0  0  0  0  0  0  0  0  0  0  0  0
    0.2918   -4.8448    7.4595 C   0  0  0  0  0  0  0  0  0  0  0  0
    1.2868   -5.4877    6.7474 C   0  0  0  0  0  0  0  0  0  0  0  0
    1.5444   -5.1263    5.4384 C   0  0  0  0  0  0  0  0  0  0  0  0
    0.8008   -4.1244    4.8385 C   0  0  0  0  0  0  0  0  0  0  0  0
    1.0516   -3.7703    3.5590 F   0  0  0  0  0  0  0  0  0  0  0  0
   -0.4987   -0.0584    6.1984 S   0  0  1  0  0  0  0  0  0  0  0  0
   -0.9093   -0.8336    7.3163 O   0  0  0  0  0  0  0  0  0  0  0  0
    0.6300    0.8044    6.2233 O   0  0  0  0  0  0  0  0  0  0  0  0
   -1.8794    0.9412    5.7521 C   0  0  0  0  0  0  0  0  0  0  0  0
   -1.6839    2.1150    5.0485 C   0  0  0  0  0  0  0  0  0  0  0  0
   -2.7665    2.8995    4.6982 C   0  0  0  0  0  0  0  0  0  0  0  0
   -4.0461    2.5099    5.0517 C   0  0  0  0  0  0  0  0  0  0  0  0
   -5.4064    3.4944    4.6115 Cl  0  0  0  0  0  0  0  0  0  0  0  0
   -4.2411    1.3350    5.7558 C   0  0  0  0  0  0  0  0  0  0  0  0
   -3.1582    0.5484    6.1007 C   0  0  0  0  0  0  0  0  0  0  0  0
    0.9016    2.7647    0.8779 H   0  0  0  0  0  0  0  0  0  0  0  0
   -0.5961    2.7834   -0.0837 H   0  0  0  0  0  0  0  0  0  0  0  0
   -0.6683    2.4895    1.6704 H   0  0  0  0  0  0  0  0  0  0  0  0
    0.4054    1.1191   -1.5867 H   0  0  0  0  0  0  0  0  0  0  0  0
    1.8833    0.9472   -0.6096 H   0  0  0  0  0  0  0  0  0  0  0  0
    1.3612   -1.4487   -0.2414 H   0  0  0  0  0  0  0  0  0  0  0  0
   -0.1166   -1.2768   -1.2186 H   0  0  0  0  0  0  0  0  0  0  0  0
    0.0145   -0.9523   -3.6231 H   0  0  0  0  0  0  0  0  0  0  0  0
    1.3256   -1.3306   -5.6727 H   0  0  0  0  0  0  0  0  0  0  0  0
    3.7501   -1.7351   -5.5262 H   0  0  0  0  0  0  0  0  0  0  0  0
    4.8636   -1.7603   -3.3301 H   0  0  0  0  0  0  0  0  0  0  0  0
    3.5532   -1.3774   -1.2808 H   0  0  0  0  0  0  0  0  0  0  0  0
    1.6940    0.0574    1.6265 H   0  0  0  0  0  0  0  0  0  0  0  0
    1.2220   -1.7314    3.5862 H   0  0  0  0  0  0  0  0  0  0  0  0
    1.4799   -0.1244    4.3068 H   0  0  0  0  0  0  0  0  0  0  0  0
   -1.9415   -2.2609    5.4364 H   0  0  0  0  0  0  0  0  0  0  0  0
   -1.1954   -2.6430    3.8662 H   0  0  0  0  0  0  0  0  0  0  0  0
   -1.2238   -3.3374    7.4210 H   0  0  0  0  0  0  0  0  0  0  0  0
    0.0915   -5.1277    8.4824 H   0  0  0  0  0  0  0  0  0  0  0  0
    1.8636   -6.2726    7.2141 H   0  0  0  0  0  0  0  0  0  0  0  0
    2.3223   -5.6283    4.8824 H   0  0  0  0  0  0  0  0  0  0  0  0
   -0.6850    2.4193    4.7729 H   0  0  0  0  0  0  0  0  0  0  0  0
   -2.6136    3.8167    4.1489 H   0  0  0  0  0  0  0  0  0  0  0  0
   -5.2397    1.0305    6.0323 H   0  0  0  0  0  0  0  0  0  0  0  0
   -3.3103   -0.3689    6.6500 H   0  0  0  0  0  0  0  0  0  0  0  0
  1  2  1  0
  1 35  1  1
  1 36  1  0
  1 37  1  0
  2  3  1  6
  2  4  1  0
  2 12  1  0
  4  5  1  0
  4 38  1  6
  4 39  1  0
  5  6  1  0
  5 40  1  1
  5 41  1  0
  6 11  2  0
  6  7  1  0
  7  8  2  0
  7 42  1  0
  8  9  1  0
  8 43  1  0
  9 10  2  0
  9 44  1  0
 10 11  1  0
 10 45  1  0
 11 46  1  0
 12 13  1  0
 12 47  1  0
 13 14  2  0
 13 15  1  0
 15 16  1  0
 15 48  1  6
 15 49  1  0
 16 17  1  0
 25 16  1  6
 17 18  1  0
 17 50  1  1
 17 51  1  0
 18 23  2  0
 18 19  1  0
 19 20  2  0
 19 52  1  0
 20 21  1  0
 20 53  1  0
 21 22  2  0
 21 54  1  0
 22 23  1  0
 22 55  1  0
 23 24  1  0
 25 26  2  0
 25 27  2  0
 25 28  1  0
 28 34  2  0
 28 29  1  0
 29 30  2  0
 29 56  1  0
 30 31  1  0
 30 57  1  0
 31 32  1  0
 31 33  2  0
 33 34  1  0
 33 58  1  0
 34 59  1  0
M  END
$$$$
