ZINC000026753615
     RDKit          3D

 52 53  0  0  1  0  0  0  0  0999 V2000
   -0.5065    1.5158   -0.4427 C   0  0  1  0  0  0  0  0  0  0  0  0
   -0.4873   -0.0140   -0.4650 C   0  0  1  0  0  0  0  0  0  0  0  0
   -1.7679   -0.5305   -1.1239 C   0  0  1  0  0  0  0  0  0  0  0  0
    0.7266   -0.4972   -1.2611 C   0  0  2  0  0  0  0  0  0  0  0  0
    1.6321   -0.0515   -0.8493 H   0  0  0  0  0  0  0  0  0  0  0  0
    0.5807   -0.0993   -2.6635 N   0  0  0  0  0  0  0  0  0  0  0  0
    0.9716    1.1281   -3.0599 C   0  0  0  0  0  0  0  0  0  0  0  0
    0.8374    1.4942   -4.3500 N   0  0  0  0  0  0  0  0  0  0  0  0
    1.4453    1.9052   -2.2536 O   0  0  0  0  0  0  0  0  0  0  0  0
    0.8204   -1.9986   -1.1721 C   0  0  0  0  0  0  0  0  0  0  0  0
    0.3779   -2.6880   -2.0665 O   0  0  0  0  0  0  0  0  0  0  0  0
    1.3961   -2.5754   -0.0986 N   0  0  0  0  0  0  0  0  0  0  0  0
    1.8241   -1.7618    1.0480 C   0  0  1  0  0  0  0  0  0  0  0  0
    1.1604   -2.3140    2.3157 C   0  0  1  0  0  0  0  0  0  0  0  0
    1.3709   -3.7678    2.3608 N   0  0  0  0  0  0  0  0  0  0  0  0
    2.0772   -4.4765    3.6803 S   0  0  1  0  0  0  0  0  0  0  0  0
    2.6313   -5.7043    3.2278 O   0  0  0  0  0  0  0  0  0  0  0  0
    2.8458   -3.4645    4.3161 O   0  0  0  0  0  0  0  0  0  0  0  0
    0.7843   -4.8973    4.8010 C   0  0  0  0  0  0  0  0  0  0  0  0
    0.3760   -3.9874    5.7582 C   0  0  0  0  0  0  0  0  0  0  0  0
   -0.6383   -4.3175    6.6374 C   0  0  0  0  0  0  0  0  0  0  0  0
   -1.2447   -5.5572    6.5591 C   0  0  0  0  0  0  0  0  0  0  0  0
   -2.3502   -5.9173    7.5180 C   0  0  1  0  0  0  0  0  0  0  0  0
   -3.5820   -5.5403    6.9722 F   0  0  0  0  0  0  0  0  0  0  0  0
   -2.3422   -7.2983    7.7415 F   0  0  0  0  0  0  0  0  0  0  0  0
   -2.1526   -5.2475    8.7302 F   0  0  0  0  0  0  0  0  0  0  0  0
   -0.8374   -6.4666    5.6010 C   0  0  0  0  0  0  0  0  0  0  0  0
    0.1744   -6.1351    4.7193 C   0  0  0  0  0  0  0  0  0  0  0  0
    0.9429   -4.5813    1.2142 C   0  0  1  0  0  0  0  0  0  0  0  0
    1.6015   -4.0298   -0.0511 C   0  0  1  0  0  0  0  0  0  0  0  0
    0.4059    1.8838    0.0268 H   0  0  0  0  0  0  0  0  0  0  0  0
   -0.5677    1.8933   -1.4634 H   0  0  0  0  0  0  0  0  0  0  0  0
   -1.3713    1.8600    0.1245 H   0  0  0  0  0  0  0  0  0  0  0  0
   -0.4261   -0.3915    0.5557 H   0  0  0  0  0  0  0  0  0  0  0  0
   -1.8291   -0.1530   -2.1446 H   0  0  0  0  0  0  0  0  0  0  0  0
   -1.7542   -1.6203   -1.1398 H   0  0  0  0  0  0  0  0  0  0  0  0
   -2.6327   -0.1862   -0.5567 H   0  0  0  0  0  0  0  0  0  0  0  0
    0.2028   -0.7192   -3.3067 H   0  0  0  0  0  0  0  0  0  0  0  0
    0.4595    0.8742   -4.9933 H   0  0  0  0  0  0  0  0  0  0  0  0
    1.1187    2.3775   -4.6353 H   0  0  0  0  0  0  0  0  0  0  0  0
    2.9081   -1.8148    1.1499 H   0  0  0  0  0  0  0  0  0  0  0  0
    1.5186   -0.7266    0.8964 H   0  0  0  0  0  0  0  0  0  0  0  0
    1.6096   -1.8518    3.1947 H   0  0  0  0  0  0  0  0  0  0  0  0
    0.0920   -2.0996    2.2923 H   0  0  0  0  0  0  0  0  0  0  0  0
    0.8498   -3.0188    5.8194 H   0  0  0  0  0  0  0  0  0  0  0  0
   -0.9568   -3.6069    7.3858 H   0  0  0  0  0  0  0  0  0  0  0  0
   -1.3114   -7.4351    5.5396 H   0  0  0  0  0  0  0  0  0  0  0  0
    0.4926   -6.8456    3.9708 H   0  0  0  0  0  0  0  0  0  0  0  0
    1.2484   -5.6166    1.3658 H   0  0  0  0  0  0  0  0  0  0  0  0
   -0.1411   -4.5284    1.1123 H   0  0  0  0  0  0  0  0  0  0  0  0
    1.1514   -4.4928   -0.9293 H   0  0  0  0  0  0  0  0  0  0  0  0
    2.6703   -4.2425   -0.0296 H   0  0  0  0  0  0  0  0  0  0  0  0
  1  2  1  0
  1 31  1  1
  1 32  1  0
  1 33  1  0
  2  3  1  0
  2  4  1  0
  2 34  1  1
  3 35  1  6
  3 36  1  0
  3 37  1  0
  4  5  1  1
  4  6  1  0
  4 10  1  0
  6  7  1  0
  6 38  1  0
  7  8  1  0
  7  9  2  0
  8 39  1  0
  8 40  1  0
 10 11  2  0
 10 12  1  0
 12 30  1  0
 12 13  1  0
 13 14  1  0
 13 41  1  1
 13 42  1  0
 14 15  1  0
 14 43  1  1
 14 44  1  0
 16 15  1  6
 15 29  1  0
 16 17  2  0
 16 18  2  0
 16 19  1  0
 19 28  2  0
 19 20  1  0
 20 21  2  0
 20 45  1  0
 21 22  1  0
 21 46  1  0
 22 23  1  0
 22 27  2  0
 23 24  1  6
 23 25  1  0
 23 26  1  0
 27 28  1  0
 27 47  1  0
 28 48  1  0
 29 30  1  0
 29 49  1  1
 29 50  1  0
 30 51  1  6
 30 52  1  0
M  END
$$$$
