ZINC000089410250
     RDKit          3D

 57 58  0  0  0  0  0  0  0  0999 V2000
   -0.0173    1.4248    0.0099 C   0  0  1  0  0  0  0  0  0  0  0  0
    0.0021   -0.0041    0.0020 O   0  0  0  0  0  0  0  0  0  0  0  0
    0.6518   -0.5703   -1.1379 C   0  0  1  0  0  0  0  0  0  0  0  0
    0.6131   -2.0967   -1.0411 C   0  0  1  0  0  0  0  0  0  0  0  0
    1.3087   -2.7029   -2.2615 C   0  0  1  0  0  0  0  0  0  0  0  0
    1.2717   -4.1645   -2.1688 N   0  0  0  0  0  0  0  0  0  0  0  0
    0.0984   -4.8994   -2.6480 C   0  0  1  0  0  0  0  0  0  0  0  0
    0.2276   -5.1409   -4.1299 C   0  0  0  0  0  0  0  0  0  0  0  0
    1.2037   -4.7388   -4.7270 O   0  0  0  0  0  0  0  0  0  0  0  0
   -0.7415   -5.8037   -4.7917 N   0  0  0  0  0  0  0  0  0  0  0  0
   -0.6159   -6.0385   -6.2322 C   0  0  1  0  0  0  0  0  0  0  0  0
   -1.8412   -6.8060   -6.7327 C   0  0  1  0  0  0  0  0  0  0  0  0
   -1.7120   -7.0475   -8.2146 C   0  0  0  0  0  0  0  0  0  0  0  0
   -2.2074   -6.1199   -9.1118 C   0  0  0  0  0  0  0  0  0  0  0  0
   -2.0889   -6.3414  -10.4711 C   0  0  0  0  0  0  0  0  0  0  0  0
   -1.4745   -7.4903  -10.9332 C   0  0  0  0  0  0  0  0  0  0  0  0
   -0.9782   -8.4174  -10.0360 C   0  0  0  0  0  0  0  0  0  0  0  0
   -1.0930   -8.1939   -8.6766 C   0  0  0  0  0  0  0  0  0  0  0  0
    2.5560   -4.9861   -1.5224 S   0  0  1  0  0  0  0  0  0  0  0  0
    2.4962   -6.3039   -2.0504 O   0  0  0  0  0  0  0  0  0  0  0  0
    3.6885   -4.1404   -1.6697 O   0  0  0  0  0  0  0  0  0  0  0  0
    2.2647   -5.1302    0.2094 C   0  0  0  0  0  0  0  0  0  0  0  0
    2.7171   -4.1468    1.0696 C   0  0  0  0  0  0  0  0  0  0  0  0
    2.4900   -4.2575    2.4277 C   0  0  0  0  0  0  0  0  0  0  0  0
    1.8069   -5.3564    2.9283 C   0  0  0  0  0  0  0  0  0  0  0  0
    1.5819   -5.4673    4.2639 O   0  0  0  0  0  0  0  0  0  0  0  0
    0.8722   -6.6254    4.7082 C   0  0  1  0  0  0  0  0  0  0  0  0
    1.3536   -6.3415    2.0630 C   0  0  0  0  0  0  0  0  0  0  0  0
    1.5791   -6.2238    0.7052 C   0  0  0  0  0  0  0  0  0  0  0  0
    1.0053    1.8021    0.0021 H   0  0  0  0  0  0  0  0  0  0  0  0
   -0.5445    1.7859   -0.8732 H   0  0  0  0  0  0  0  0  0  0  0  0
   -0.5275    1.7763    0.9067 H   0  0  0  0  0  0  0  0  0  0  0  0
    0.1385   -0.2506   -2.0447 H   0  0  0  0  0  0  0  0  0  0  0  0
    1.6883   -0.2344   -1.1694 H   0  0  0  0  0  0  0  0  0  0  0  0
    1.1264   -2.4164   -0.1342 H   0  0  0  0  0  0  0  0  0  0  0  0
   -0.4234   -2.4326   -1.0095 H   0  0  0  0  0  0  0  0  0  0  0  0
    0.7954   -2.3833   -3.1684 H   0  0  0  0  0  0  0  0  0  0  0  0
    2.3452   -2.3671   -2.2930 H   0  0  0  0  0  0  0  0  0  0  0  0
    0.0313   -5.8553   -2.1285 H   0  0  0  0  0  0  0  0  0  0  0  0
   -0.8010   -4.3155   -2.4521 H   0  0  0  0  0  0  0  0  0  0  0  0
   -1.5222   -6.1253   -4.3141 H   0  0  0  0  0  0  0  0  0  0  0  0
   -0.5488   -5.0826   -6.7517 H   0  0  0  0  0  0  0  0  0  0  0  0
    0.2835   -6.6224   -6.4281 H   0  0  0  0  0  0  0  0  0  0  0  0
   -1.9083   -7.7619   -6.2132 H   0  0  0  0  0  0  0  0  0  0  0  0
   -2.7406   -6.2221   -6.5368 H   0  0  0  0  0  0  0  0  0  0  0  0
   -2.6874   -5.2223   -8.7508 H   0  0  0  0  0  0  0  0  0  0  0  0
   -2.4766   -5.6171  -11.1722 H   0  0  0  0  0  0  0  0  0  0  0  0
   -1.3825   -7.6637  -11.9952 H   0  0  0  0  0  0  0  0  0  0  0  0
   -0.4985   -9.3152  -10.3970 H   0  0  0  0  0  0  0  0  0  0  0  0
   -0.7052   -8.9182   -7.9756 H   0  0  0  0  0  0  0  0  0  0  0  0
    3.2488   -3.2915    0.6794 H   0  0  0  0  0  0  0  0  0  0  0  0
    2.8442   -3.4894    3.0993 H   0  0  0  0  0  0  0  0  0  0  0  0
   -0.1129   -6.6488    4.2422 H   0  0  0  0  0  0  0  0  0  0  0  0
    1.4274   -7.5210    4.4293 H   0  0  0  0  0  0  0  0  0  0  0  0
    0.7607   -6.5897    5.7919 H   0  0  0  0  0  0  0  0  0  0  0  0
    0.8219   -7.1981    2.4503 H   0  0  0  0  0  0  0  0  0  0  0  0
    1.2261   -6.9903    0.0312 H   0  0  0  0  0  0  0  0  0  0  0  0
  1  2  1  0
  1 30  1  6
  1 31  1  0
  1 32  1  0
  2  3  1  0
  3  4  1  0
  3 33  1  6
  3 34  1  0
  4  5  1  0
  4 35  1  1
  4 36  1  0
  5  6  1  0
  5 37  1  6
  5 38  1  0
  6  7  1  0
 19  6  1  6
  7  8  1  0
  7 39  1  1
  7 40  1  0
  8  9  2  0
  8 10  1  0
 10 11  1  0
 10 41  1  0
 11 12  1  0
 11 42  1  6
 11 43  1  0
 12 13  1  0
 12 44  1  1
 12 45  1  0
 13 18  2  0
 13 14  1  0
 14 15  2  0
 14 46  1  0
 15 16  1  0
 15 47  1  0
 16 17  2  0
 16 48  1  0
 17 18  1  0
 17 49  1  0
 18 50  1  0
 19 20  2  0
 19 21  2  0
 19 22  1  0
 22 29  2  0
 22 23  1  0
 23 24  2  0
 23 51  1  0
 24 25  1  0
 24 52  1  0
 25 26  1  0
 25 28  2  0
 26 27  1  0
 27 53  1  6
 27 54  1  0
 27 55  1  0
 28 29  1  0
 28 56  1  0
 29 57  1  0
M  END
$$$$
