ZINC000028049967
     RDKit          3D

 44 46  0  0  1  0  0  0  0  0999 V2000
   -0.0139   -0.1234    0.0468 O   0  0  0  0  0  0  0  0  0  0  0  0
    0.0417    1.0876    0.0082 C   0  0  0  0  0  0  0  0  0  0  0  0
    1.2386    1.7071   -0.0035 N   0  0  0  0  0  0  0  0  0  0  0  0
    2.4723    0.9178    0.0303 C   0  0  1  0  0  0  0  0  0  0  0  0
    3.6615    1.8432    0.0087 C   0  0  0  0  0  0  0  0  0  0  0  0
    4.2781    2.3571    1.0882 C   0  0  0  0  0  0  0  0  0  0  0  0
    5.3350    3.1654    0.6101 C   0  0  0  0  0  0  0  0  0  0  0  0
    5.3011    3.0971   -0.7329 C   0  0  0  0  0  0  0  0  0  0  0  0
    4.2890    2.2902   -1.0913 O   0  0  0  0  0  0  0  0  0  0  0  0
   -1.2273    1.8993   -0.0328 C   0  0  2  0  0  0  0  0  0  0  0  0
   -1.2469    2.5110   -0.9348 H   0  0  0  0  0  0  0  0  0  0  0  0
   -1.3134    2.8022    1.2157 C   0  0  1  0  0  0  0  0  0  0  0  0
   -2.8213    2.7518    1.5778 C   0  0  1  0  0  0  0  0  0  0  0  0
   -3.1815    1.2915    1.2069 C   0  0  1  0  0  0  0  0  0  0  0  0
   -2.3939    1.0048   -0.0099 N   0  0  0  0  0  0  0  0  0  0  0  0
   -2.7641   -0.1348   -1.1529 S   0  0  1  0  0  0  0  0  0  0  0  0
   -1.5861   -0.3271   -1.9240 O   0  0  0  0  0  0  0  0  0  0  0  0
   -3.4257   -1.1897   -0.4682 O   0  0  0  0  0  0  0  0  0  0  0  0
   -3.9562    0.5803   -2.2355 C   0  0  0  0  0  0  0  0  0  0  0  0
   -5.2497    0.0943   -2.2571 C   0  0  0  0  0  0  0  0  0  0  0  0
   -6.1852    0.6554   -3.1066 C   0  0  0  0  0  0  0  0  0  0  0  0
   -7.5956    0.1249   -3.1296 C   0  0  1  0  0  0  0  0  0  0  0  0
   -8.3708    0.8207   -2.1957 F   0  0  0  0  0  0  0  0  0  0  0  0
   -8.1381    0.2980   -4.4074 F   0  0  0  0  0  0  0  0  0  0  0  0
   -7.5871   -1.2364   -2.8070 F   0  0  0  0  0  0  0  0  0  0  0  0
   -5.8275    1.7029   -3.9344 C   0  0  0  0  0  0  0  0  0  0  0  0
   -4.5340    2.1899   -3.9137 C   0  0  0  0  0  0  0  0  0  0  0  0
   -3.5989    1.6324   -3.0602 C   0  0  0  0  0  0  0  0  0  0  0  0
   -1.9742    2.2435   -3.0337 Cl  0  0  0  0  0  0  0  0  0  0  0  0
    1.2831    2.6756   -0.0343 H   0  0  0  0  0  0  0  0  0  0  0  0
    2.4952    0.3181    0.9402 H   0  0  0  0  0  0  0  0  0  0  0  0
    2.5073    0.2609   -0.8388 H   0  0  0  0  0  0  0  0  0  0  0  0
    4.0157    2.1857    2.1217 H   0  0  0  0  0  0  0  0  0  0  0  0
    6.0350    3.7297    1.2084 H   0  0  0  0  0  0  0  0  0  0  0  0
    5.9758    3.6021   -1.4082 H   0  0  0  0  0  0  0  0  0  0  0  0
   -0.7083    2.3974    2.0269 H   0  0  0  0  0  0  0  0  0  0  0  0
   -1.0081    3.8209    0.9767 H   0  0  0  0  0  0  0  0  0  0  0  0
   -2.9740    2.9337    2.6416 H   0  0  0  0  0  0  0  0  0  0  0  0
   -3.3914    3.4597    0.9762 H   0  0  0  0  0  0  0  0  0  0  0  0
   -2.8974    0.6144    2.0124 H   0  0  0  0  0  0  0  0  0  0  0  0
   -4.2475    1.2056    0.9961 H   0  0  0  0  0  0  0  0  0  0  0  0
   -5.5297   -0.7241   -1.6105 H   0  0  0  0  0  0  0  0  0  0  0  0
   -6.5588    2.1407   -4.5977 H   0  0  0  0  0  0  0  0  0  0  0  0
   -4.2546    3.0084   -4.5606 H   0  0  0  0  0  0  0  0  0  0  0  0
  1  2  2  0
  2  3  1  0
  2 10  1  0
  3  4  1  0
  3 30  1  0
  4  5  1  0
  4 31  1  1
  4 32  1  0
  5  9  1  0
  5  6  2  0
  6  7  1  0
  6 33  1  0
  7  8  2  0
  7 34  1  0
  8  9  1  0
  8 35  1  0
 10 11  1  6
 10 15  1  0
 10 12  1  0
 12 13  1  0
 12 36  1  1
 12 37  1  0
 13 14  1  0
 13 38  1  1
 13 39  1  0
 14 15  1  0
 14 40  1  1
 14 41  1  0
 16 15  1  1
 16 17  2  0
 16 18  2  0
 16 19  1  0
 19 28  2  0
 19 20  1  0
 20 21  2  0
 20 42  1  0
 21 22  1  0
 21 26  1  0
 22 23  1  1
 22 24  1  0
 22 25  1  0
 26 27  2  0
 26 43  1  0
 27 28  1  0
 27 44  1  0
 28 29  1  0
M  END
$$$$
