ZINC000237504753
     RDKit          3D

 39 40  0  0  1  0  0  0  0  0999 V2000
    0.0017    1.2256   -0.6121 C   0  0  1  0  0  0  0  0  0  0  0  0
    0.0244   -0.2709   -0.2945 C   0  0  2  0  0  0  0  0  0  0  0  0
    0.5544   -0.8039   -1.0839 H   0  0  0  0  0  0  0  0  0  0  0  0
   -1.4110   -0.7965   -0.1942 C   0  0  1  0  0  0  0  0  0  0  0  0
   -2.1072   -0.1422    1.0014 C   0  0  1  0  0  0  0  0  0  0  0  0
   -2.1021    0.9406    0.8767 H   0  0  0  0  0  0  0  0  0  0  0  0
   -3.4943   -0.6191    1.0812 N   0  0  1  0  0  0  0  0  0  0  0  0
   -3.4992   -1.6215    1.1963 H   0  0  0  0  0  0  0  0  0  0  0  0
   -3.9534   -0.1878    1.8694 H   0  0  0  0  0  0  0  0  0  0  0  0
   -3.9830   -0.3755    0.2327 H   0  0  0  0  0  0  0  0  0  0  0  0
   -1.3668   -0.5105    2.2892 C   0  0  1  0  0  0  0  0  0  0  0  0
    0.0691    0.0183    2.2170 C   0  0  1  0  0  0  0  0  0  0  0  0
    0.7027   -0.4916    0.9900 N   0  0  0  0  0  0  0  0  0  0  0  0
    2.1475   -1.2979    1.0588 S   0  0  1  0  0  0  0  0  0  0  0  0
    2.8198   -1.0216   -0.1622 O   0  0  0  0  0  0  0  0  0  0  0  0
    2.7052   -1.0138    2.3346 O   0  0  0  0  0  0  0  0  0  0  0  0
    1.7837   -3.0219    1.0475 C   0  0  0  0  0  0  0  0  0  0  0  0
    2.1407   -3.7964   -0.0399 C   0  0  0  0  0  0  0  0  0  0  0  0
    1.8552   -5.1492   -0.0490 C   0  0  0  0  0  0  0  0  0  0  0  0
    1.2124   -5.7277    1.0292 C   0  0  0  0  0  0  0  0  0  0  0  0
    0.9017   -7.2023    1.0185 C   0  0  1  0  0  0  0  0  0  0  0  0
    1.9725   -7.9085    1.5769 F   0  0  0  0  0  0  0  0  0  0  0  0
   -0.2554   -7.4404    1.7679 F   0  0  0  0  0  0  0  0  0  0  0  0
    0.6995   -7.6267   -0.2991 F   0  0  0  0  0  0  0  0  0  0  0  0
    0.8549   -4.9540    2.1176 C   0  0  0  0  0  0  0  0  0  0  0  0
    1.1457   -3.6016    2.1299 C   0  0  0  0  0  0  0  0  0  0  0  0
    0.6970   -2.6293    3.4963 Cl  0  0  0  0  0  0  0  0  0  0  0  0
    1.0238    1.5986   -0.6781 H   0  0  0  0  0  0  0  0  0  0  0  0
   -0.5063    1.3876   -1.5628 H   0  0  0  0  0  0  0  0  0  0  0  0
   -0.5286    1.7568    0.1783 H   0  0  0  0  0  0  0  0  0  0  0  0
   -1.9524   -0.5529   -1.1083 H   0  0  0  0  0  0  0  0  0  0  0  0
   -1.3939   -1.8778   -0.0581 H   0  0  0  0  0  0  0  0  0  0  0  0
   -1.8767   -0.0634    3.1426 H   0  0  0  0  0  0  0  0  0  0  0  0
   -1.3501   -1.5946    2.4019 H   0  0  0  0  0  0  0  0  0  0  0  0
    0.0566    1.1080    2.1956 H   0  0  0  0  0  0  0  0  0  0  0  0
    0.6293   -0.3257    3.0865 H   0  0  0  0  0  0  0  0  0  0  0  0
    2.6423   -3.3448   -0.8830 H   0  0  0  0  0  0  0  0  0  0  0  0
    2.1344   -5.7541   -0.8991 H   0  0  0  0  0  0  0  0  0  0  0  0
    0.3526   -5.4061    2.9600 H   0  0  0  0  0  0  0  0  0  0  0  0
  1  2  1  0
  1 28  1  6
  1 29  1  0
  1 30  1  0
  2  3  1  6
  2 13  1  0
  2  4  1  0
  4  5  1  0
  4 31  1  6
  4 32  1  0
  5  6  1  6
  5  7  1  0
  5 11  1  0
  7  8  1  1
  7  9  1  0
  7 10  1  0
 11 12  1  0
 11 33  1  1
 11 34  1  0
 12 13  1  0
 12 35  1  6
 12 36  1  0
 14 13  1  6
 14 15  2  0
 14 16  2  0
 14 17  1  0
 17 26  2  0
 17 18  1  0
 18 19  2  0
 18 37  1  0
 19 20  1  0
 19 38  1  0
 20 21  1  0
 20 25  2  0
 21 22  1  1
 21 23  1  0
 21 24  1  0
 25 26  1  0
 25 39  1  0
 26 27  1  0
M  CHG  1   7   1
M  END
$$$$
