ZINC000048363052
     RDKit          3D

 51 52  0  0  0  0  0  0  0  0999 V2000
   -0.0187    1.5258    0.0104 C   0  0  1  0  0  0  0  0  0  0  0  0
    0.0021   -0.0041    0.0020 C   0  0  1  0  0  0  0  0  0  0  0  0
    0.6878   -0.4765   -1.2033 N   0  0  0  0  0  0  0  0  0  0  0  0
    2.1478   -0.5966   -1.2159 C   0  0  1  0  0  0  0  0  0  0  0  0
    2.5532   -1.9514   -0.6319 C   0  0  1  0  0  0  0  0  0  0  0  0
   -0.1875   -0.8749   -2.5515 S   0  0  1  0  0  0  0  0  0  0  0  0
    0.6166   -1.7761   -3.3001 O   0  0  0  0  0  0  0  0  0  0  0  0
   -1.4970   -1.1925   -2.1004 O   0  0  0  0  0  0  0  0  0  0  0  0
   -0.3375    0.5853   -3.5262 C   0  0  0  0  0  0  0  0  0  0  0  0
   -1.4057    1.4405   -3.3300 C   0  0  0  0  0  0  0  0  0  0  0  0
   -1.5234    2.5861   -4.0947 C   0  0  0  0  0  0  0  0  0  0  0  0
   -0.5727    2.8767   -5.0552 C   0  0  0  0  0  0  0  0  0  0  0  0
   -0.7013    4.1253   -5.8892 C   0  0  1  0  0  0  0  0  0  0  0  0
    0.0204    5.2805   -5.1924 C   0  0  1  0  0  0  0  0  0  0  0  0
   -0.1082    6.5291   -6.0263 C   0  0  0  0  0  0  0  0  0  0  0  0
   -0.7171    6.4981   -7.0748 O   0  0  0  0  0  0  0  0  0  0  0  0
    0.4534    7.6803   -5.6071 N   0  0  0  0  0  0  0  0  0  0  0  0
    0.3284    8.8941   -6.4178 C   0  0  1  0  0  0  0  0  0  0  0  0
    1.0392   10.0320   -5.7315 C   0  0  0  0  0  0  0  0  0  0  0  0
    0.5565   10.8063   -4.8030 N   0  0  0  0  0  0  0  0  0  0  0  0
    1.3657   11.6308   -4.4457 O   0  0  0  0  0  0  0  0  0  0  0  0
    2.5229   11.5058   -5.1104 C   0  0  0  0  0  0  0  0  0  0  0  0
    3.7587   12.3508   -4.9374 C   0  0  1  0  0  0  0  0  0  0  0  0
    2.3644   10.4662   -5.9641 C   0  0  0  0  0  0  0  0  0  0  0  0
    0.4962    2.0221   -5.2504 C   0  0  0  0  0  0  0  0  0  0  0  0
    0.6160    0.8786   -4.4831 C   0  0  0  0  0  0  0  0  0  0  0  0
    1.0039    1.9031    0.0027 H   0  0  0  0  0  0  0  0  0  0  0  0
   -0.5459    1.8868   -0.8726 H   0  0  0  0  0  0  0  0  0  0  0  0
   -0.5289    1.8773    0.9072 H   0  0  0  0  0  0  0  0  0  0  0  0
    0.5293   -0.3651    0.8851 H   0  0  0  0  0  0  0  0  0  0  0  0
   -1.0205   -0.3814    0.0098 H   0  0  0  0  0  0  0  0  0  0  0  0
    2.5098   -0.5199   -2.2412 H   0  0  0  0  0  0  0  0  0  0  0  0
    2.5833    0.2026   -0.6162 H   0  0  0  0  0  0  0  0  0  0  0  0
    2.1912   -2.0280    0.3934 H   0  0  0  0  0  0  0  0  0  0  0  0
    2.1177   -2.7506   -1.2316 H   0  0  0  0  0  0  0  0  0  0  0  0
    3.6395   -2.0407   -0.6413 H   0  0  0  0  0  0  0  0  0  0  0  0
   -2.1485    1.2135   -2.5796 H   0  0  0  0  0  0  0  0  0  0  0  0
   -2.3583    3.2539   -3.9419 H   0  0  0  0  0  0  0  0  0  0  0  0
   -0.2543    3.9556   -6.8687 H   0  0  0  0  0  0  0  0  0  0  0  0
   -1.7555    4.3750   -6.0092 H   0  0  0  0  0  0  0  0  0  0  0  0
   -0.4267    5.4502   -4.2129 H   0  0  0  0  0  0  0  0  0  0  0  0
    1.0745    5.0308   -5.0723 H   0  0  0  0  0  0  0  0  0  0  0  0
    0.9404    7.7052   -4.7686 H   0  0  0  0  0  0  0  0  0  0  0  0
    0.7754    8.7245   -7.3973 H   0  0  0  0  0  0  0  0  0  0  0  0
   -0.7258    9.1439   -6.5379 H   0  0  0  0  0  0  0  0  0  0  0  0
    3.5787   13.1051   -4.1715 H   0  0  0  0  0  0  0  0  0  0  0  0
    4.5925   11.7174   -4.6347 H   0  0  0  0  0  0  0  0  0  0  0  0
    3.9987   12.8410   -5.8809 H   0  0  0  0  0  0  0  0  0  0  0  0
    3.0820   10.0658   -6.6650 H   0  0  0  0  0  0  0  0  0  0  0  0
    1.2392    2.2494   -6.0006 H   0  0  0  0  0  0  0  0  0  0  0  0
    1.4511    0.2109   -4.6357 H   0  0  0  0  0  0  0  0  0  0  0  0
  1  2  1  0
  1 27  1  6
  1 28  1  0
  1 29  1  0
  2  3  1  0
  2 30  1  1
  2 31  1  0
  3  4  1  0
  6  3  1  1
  4  5  1  0
  4 32  1  6
  4 33  1  0
  5 34  1  1
  5 35  1  0
  5 36  1  0
  6  7  2  0
  6  8  2  0
  6  9  1  0
  9 26  2  0
  9 10  1  0
 10 11  2  0
 10 37  1  0
 11 12  1  0
 11 38  1  0
 12 13  1  0
 12 25  2  0
 13 14  1  0
 13 39  1  6
 13 40  1  0
 14 15  1  0
 14 41  1  1
 14 42  1  0
 15 16  2  0
 15 17  1  0
 17 18  1  0
 17 43  1  0
 18 19  1  0
 18 44  1  6
 18 45  1  0
 19 24  1  0
 19 20  2  0
 20 21  1  0
 21 22  1  0
 22 23  1  0
 22 24  2  0
 23 46  1  1
 23 47  1  0
 23 48  1  0
 24 49  1  0
 25 26  1  0
 25 50  1  0
 26 51  1  0
M  END
$$$$
