ZINC000006844227
     RDKit          3D

 41 43  0  0  1  0  0  0  0  0999 V2000
   -0.0187    1.5258    0.0104 C   0  0  1  0  0  0  0  0  0  0  0  0
    0.0021   -0.0041    0.0020 C   0  0  1  0  0  0  0  0  0  0  0  0
   -1.0174   -0.3897    0.0097 H   0  0  0  0  0  0  0  0  0  0  0  0
    0.7331   -0.5032   -1.2230 C   0  0  0  0  0  0  0  0  0  0  0  0
    0.3180   -0.4600   -2.4986 C   0  0  0  0  0  0  0  0  0  0  0  0
    1.3347   -1.0341   -3.2899 C   0  0  0  0  0  0  0  0  0  0  0  0
    2.3316   -1.4074   -2.4602 C   0  0  0  0  0  0  0  0  0  0  0  0
    1.9691   -1.0893   -1.1876 N   0  0  0  0  0  0  0  0  0  0  0  0
    2.7444   -1.3265    0.0351 C   0  0  1  0  0  0  0  0  0  0  0  0
    2.2082   -0.4284    1.1548 C   0  0  1  0  0  0  0  0  0  0  0  0
    0.7380   -0.5039    1.1783 N   0  0  0  0  0  0  0  0  0  0  0  0
   -0.0627   -1.1311    2.4851 S   0  0  1  0  0  0  0  0  0  0  0  0
   -1.3276   -1.5691    2.0083 O   0  0  0  0  0  0  0  0  0  0  0  0
    0.8580   -1.9882    3.1463 O   0  0  0  0  0  0  0  0  0  0  0  0
   -0.3824    0.2032    3.5906 C   0  0  0  0  0  0  0  0  0  0  0  0
    0.5416    0.5295    4.5656 C   0  0  0  0  0  0  0  0  0  0  0  0
    0.2907    1.5762    5.4329 C   0  0  0  0  0  0  0  0  0  0  0  0
    1.2978    1.9316    6.4962 C   0  0  1  0  0  0  0  0  0  0  0  0
    2.1978    2.8751    5.9894 F   0  0  0  0  0  0  0  0  0  0  0  0
    0.6351    2.4681    7.6054 F   0  0  0  0  0  0  0  0  0  0  0  0
    1.9952    0.7815    6.8810 F   0  0  0  0  0  0  0  0  0  0  0  0
   -0.8837    2.2974    5.3245 C   0  0  0  0  0  0  0  0  0  0  0  0
   -1.8074    1.9714    4.3492 C   0  0  0  0  0  0  0  0  0  0  0  0
   -3.0879    2.7572    4.2313 C   0  0  1  0  0  0  0  0  0  0  0  0
   -3.1134    3.7566    5.2100 F   0  0  0  0  0  0  0  0  0  0  0  0
   -3.1599    3.3441    2.9634 F   0  0  0  0  0  0  0  0  0  0  0  0
   -4.1791    1.9004    4.4112 F   0  0  0  0  0  0  0  0  0  0  0  0
   -1.5546    0.9273    3.4792 C   0  0  0  0  0  0  0  0  0  0  0  0
    1.0039    1.9031    0.0027 H   0  0  0  0  0  0  0  0  0  0  0  0
   -0.5459    1.8868   -0.8726 H   0  0  0  0  0  0  0  0  0  0  0  0
   -0.5289    1.8773    0.9072 H   0  0  0  0  0  0  0  0  0  0  0  0
   -0.6205   -0.0601   -2.8533 H   0  0  0  0  0  0  0  0  0  0  0  0
    1.3185   -1.1532   -4.3632 H   0  0  0  0  0  0  0  0  0  0  0  0
    3.2579   -1.8778   -2.7554 H   0  0  0  0  0  0  0  0  0  0  0  0
    2.6491   -2.3716    0.3296 H   0  0  0  0  0  0  0  0  0  0  0  0
    3.7933   -1.0932   -0.1479 H   0  0  0  0  0  0  0  0  0  0  0  0
    2.6045   -0.7653    2.1127 H   0  0  0  0  0  0  0  0  0  0  0  0
    2.5168    0.6013    0.9746 H   0  0  0  0  0  0  0  0  0  0  0  0
    1.4592   -0.0337    4.6501 H   0  0  0  0  0  0  0  0  0  0  0  0
   -1.0796    3.1152    6.0021 H   0  0  0  0  0  0  0  0  0  0  0  0
   -2.2763    0.6726    2.7171 H   0  0  0  0  0  0  0  0  0  0  0  0
  1  2  1  0
  1 29  1  6
  1 30  1  0
  1 31  1  0
  2  3  1  1
  2 11  1  0
  2  4  1  0
  4  8  1  0
  4  5  2  0
  5  6  1  0
  5 32  1  0
  6  7  2  0
  6 33  1  0
  7  8  1  0
  7 34  1  0
  8  9  1  0
  9 10  1  0
  9 35  1  1
  9 36  1  0
 10 11  1  0
 10 37  1  1
 10 38  1  0
 12 11  1  6
 12 13  2  0
 12 14  2  0
 12 15  1  0
 15 28  2  0
 15 16  1  0
 16 17  2  0
 16 39  1  0
 17 18  1  0
 17 22  1  0
 18 19  1  6
 18 20  1  0
 18 21  1  0
 22 23  2  0
 22 40  1  0
 23 24  1  0
 23 28  1  0
 24 25  1  1
 24 26  1  0
 24 27  1  0
 28 41  1  0
M  END
$$$$
