ZINC000237536271
     RDKit          3D

 39 40  0  0  1  0  0  0  0  0999 V2000
   -0.9014    1.5042    0.9282 C   0  0  1  0  0  0  0  0  0  0  0  0
   -0.5920    0.0717    0.4889 C   0  0  1  0  0  0  0  0  0  0  0  0
   -1.4080   -0.5864    0.7874 H   0  0  0  0  0  0  0  0  0  0  0  0
   -0.4260    0.0260   -1.0333 C   0  0  1  0  0  0  0  0  0  0  0  0
    0.0194   -1.3771   -1.4520 C   0  0  1  0  0  0  0  0  0  0  0  0
   -0.7215   -2.1062   -1.1240 H   0  0  0  0  0  0  0  0  0  0  0  0
    0.1478   -1.4338   -2.9143 N   0  0  1  0  0  0  0  0  0  0  0  0
    0.8333   -0.7586   -3.2181 H   0  0  0  0  0  0  0  0  0  0  0  0
    0.4414   -2.3588   -3.1904 H   0  0  0  0  0  0  0  0  0  0  0  0
   -0.7430   -1.2230   -3.3386 H   0  0  0  0  0  0  0  0  0  0  0  0
    1.3704   -1.6984   -0.8089 C   0  0  1  0  0  0  0  0  0  0  0  0
    1.2248   -1.6722    0.7159 C   0  0  1  0  0  0  0  0  0  0  0  0
    0.6579   -0.3772    1.1174 N   0  0  0  0  0  0  0  0  0  0  0  0
    1.4167    0.5607    2.2519 S   0  0  1  0  0  0  0  0  0  0  0  0
    0.3904    1.2375    2.9645 O   0  0  0  0  0  0  0  0  0  0  0  0
    2.3806   -0.2722    2.8814 O   0  0  0  0  0  0  0  0  0  0  0  0
    2.3205    1.7998    1.3844 C   0  0  0  0  0  0  0  0  0  0  0  0
    1.9491    3.1267    1.4892 C   0  0  0  0  0  0  0  0  0  0  0  0
    2.6582    4.0992    0.8085 C   0  0  0  0  0  0  0  0  0  0  0  0
    3.7384    3.7447    0.0225 C   0  0  0  0  0  0  0  0  0  0  0  0
    4.5107    4.8052   -0.7191 C   0  0  1  0  0  0  0  0  0  0  0  0
    5.5514    5.2753    0.0892 F   0  0  0  0  0  0  0  0  0  0  0  0
    5.0418    4.2602   -1.8930 F   0  0  0  0  0  0  0  0  0  0  0  0
    3.6560    5.8646   -1.0418 F   0  0  0  0  0  0  0  0  0  0  0  0
    4.1108    2.4176   -0.0831 C   0  0  0  0  0  0  0  0  0  0  0  0
    3.4056    1.4450    0.6026 C   0  0  0  0  0  0  0  0  0  0  0  0
    3.8727   -0.2218    0.4705 Cl  0  0  0  0  0  0  0  0  0  0  0  0
   -0.0082    2.1191    0.8178 H   0  0  0  0  0  0  0  0  0  0  0  0
   -1.7007    1.9099    0.3080 H   0  0  0  0  0  0  0  0  0  0  0  0
   -1.2157    1.5043    1.9719 H   0  0  0  0  0  0  0  0  0  0  0  0
   -1.3769    0.2633   -1.5103 H   0  0  0  0  0  0  0  0  0  0  0  0
    0.3264    0.7529   -1.3393 H   0  0  0  0  0  0  0  0  0  0  0  0
    1.6980   -2.6884   -1.1261 H   0  0  0  0  0  0  0  0  0  0  0  0
    2.1059   -0.9553   -1.1169 H   0  0  0  0  0  0  0  0  0  0  0  0
    0.5585   -2.4744    1.0331 H   0  0  0  0  0  0  0  0  0  0  0  0
    2.2030   -1.8023    1.1787 H   0  0  0  0  0  0  0  0  0  0  0  0
    1.1047    3.4042    2.1027 H   0  0  0  0  0  0  0  0  0  0  0  0
    2.3676    5.1361    0.8908 H   0  0  0  0  0  0  0  0  0  0  0  0
    4.9550    2.1408   -0.6973 H   0  0  0  0  0  0  0  0  0  0  0  0
  1  2  1  0
  1 28  1  1
  1 29  1  0
  1 30  1  0
  2  3  1  6
  2 13  1  0
  2  4  1  0
  4  5  1  0
  4 31  1  6
  4 32  1  0
  5  6  1  1
  5  7  1  0
  5 11  1  0
  7  8  1  6
  7  9  1  0
  7 10  1  0
 11 12  1  0
 11 33  1  6
 11 34  1  0
 12 13  1  0
 12 35  1  1
 12 36  1  0
 14 13  1  6
 14 15  2  0
 14 16  2  0
 14 17  1  0
 17 26  2  0
 17 18  1  0
 18 19  2  0
 18 37  1  0
 19 20  1  0
 19 38  1  0
 20 21  1  0
 20 25  2  0
 21 22  1  1
 21 23  1  0
 21 24  1  0
 25 26  1  0
 25 39  1  0
 26 27  1  0
M  CHG  1   7   1
M  END
$$$$
