ZINC000028207335
     RDKit          3D

 46 46  0  0  1  0  0  0  0  0999 V2000
   -0.0187    1.5258    0.0104 C   0  0  1  0  0  0  0  0  0  0  0  0
    0.0021   -0.0041    0.0020 C   0  0  1  0  0  0  0  0  0  0  0  0
    0.7182   -0.4975   -1.2568 C   0  0  1  0  0  0  0  0  0  0  0  0
    0.7390   -2.0273   -1.2652 C   0  0  2  0  0  0  0  0  0  0  0  0
    1.1870   -2.3897   -0.3400 H   0  0  0  0  0  0  0  0  0  0  0  0
    1.5619   -2.5197   -2.4574 C   0  0  1  0  0  0  0  0  0  0  0  0
   -0.6313   -2.5337   -1.3752 N   0  0  0  0  0  0  0  0  0  0  0  0
   -0.9349   -3.7625   -0.9121 C   0  0  0  0  0  0  0  0  0  0  0  0
   -0.0737   -4.4490   -0.4043 O   0  0  0  0  0  0  0  0  0  0  0  0
   -2.3445   -4.2833   -1.0253 C   0  0  1  0  0  0  0  0  0  0  0  0
   -2.4129   -5.5975   -0.4681 O   0  0  0  0  0  0  0  0  0  0  0  0
   -3.6232   -6.2151   -0.4909 C   0  0  0  0  0  0  0  0  0  0  0  0
   -4.7212   -5.5718   -1.0435 C   0  0  0  0  0  0  0  0  0  0  0  0
   -5.9503   -6.2019   -1.0660 C   0  0  0  0  0  0  0  0  0  0  0  0
   -6.0869   -7.4724   -0.5379 C   0  0  0  0  0  0  0  0  0  0  0  0
   -7.6562   -8.2732   -0.5675 S   0  0  1  0  0  0  0  0  0  0  0  0
   -7.6336   -9.2389    0.4747 O   0  0  0  0  0  0  0  0  0  0  0  0
   -8.6310   -7.2427   -0.6512 O   0  0  0  0  0  0  0  0  0  0  0  0
   -7.7477   -9.1200   -1.9877 N   0  0  0  0  0  0  0  0  0  0  0  0
   -7.2819  -10.5078   -2.0443 C   0  0  1  0  0  0  0  0  0  0  0  0
   -8.2945   -8.4812   -3.1874 C   0  0  1  0  0  0  0  0  0  0  0  0
   -4.9941   -8.1158    0.0130 C   0  0  0  0  0  0  0  0  0  0  0  0
   -3.7616   -7.4921    0.0331 C   0  0  0  0  0  0  0  0  0  0  0  0
    1.0039    1.9031    0.0027 H   0  0  0  0  0  0  0  0  0  0  0  0
   -0.5459    1.8868   -0.8726 H   0  0  0  0  0  0  0  0  0  0  0  0
   -0.5289    1.8773    0.9072 H   0  0  0  0  0  0  0  0  0  0  0  0
    0.5293   -0.3651    0.8851 H   0  0  0  0  0  0  0  0  0  0  0  0
   -1.0205   -0.3814    0.0098 H   0  0  0  0  0  0  0  0  0  0  0  0
    0.1910   -0.1364   -2.1398 H   0  0  0  0  0  0  0  0  0  0  0  0
    1.7408   -0.1202   -1.2645 H   0  0  0  0  0  0  0  0  0  0  0  0
    1.1138   -2.1573   -3.3826 H   0  0  0  0  0  0  0  0  0  0  0  0
    2.5814   -2.1429   -2.3755 H   0  0  0  0  0  0  0  0  0  0  0  0
    1.5766   -3.6095   -2.4634 H   0  0  0  0  0  0  0  0  0  0  0  0
   -1.3201   -1.9846   -1.7814 H   0  0  0  0  0  0  0  0  0  0  0  0
   -3.0206   -3.6229   -0.4824 H   0  0  0  0  0  0  0  0  0  0  0  0
   -2.6358   -4.3182   -2.0751 H   0  0  0  0  0  0  0  0  0  0  0  0
   -4.6152   -4.5791   -1.4555 H   0  0  0  0  0  0  0  0  0  0  0  0
   -6.8054   -5.7016   -1.4960 H   0  0  0  0  0  0  0  0  0  0  0  0
   -8.1070  -11.1781   -1.8034 H   0  0  0  0  0  0  0  0  0  0  0  0
   -6.9163  -10.7276   -3.0474 H   0  0  0  0  0  0  0  0  0  0  0  0
   -6.4760  -10.6502   -1.3245 H   0  0  0  0  0  0  0  0  0  0  0  0
   -8.5859   -7.4574   -2.9531 H   0  0  0  0  0  0  0  0  0  0  0  0
   -7.5376   -8.4731   -3.9717 H   0  0  0  0  0  0  0  0  0  0  0  0
   -9.1667   -9.0379   -3.5299 H   0  0  0  0  0  0  0  0  0  0  0  0
   -5.1033   -9.1084    0.4246 H   0  0  0  0  0  0  0  0  0  0  0  0
   -2.9083   -7.9951    0.4635 H   0  0  0  0  0  0  0  0  0  0  0  0
  1  2  1  0
  1 24  1  6
  1 25  1  0
  1 26  1  0
  2  3  1  0
  2 27  1  1
  2 28  1  0
  3  4  1  0
  3 29  1  6
  3 30  1  0
  4  5  1  1
  4  6  1  0
  4  7  1  0
  6 31  1  6
  6 32  1  0
  6 33  1  0
  7  8  1  0
  7 34  1  0
  8  9  2  0
  8 10  1  0
 10 11  1  0
 10 35  1  1
 10 36  1  0
 11 12  1  0
 12 23  2  0
 12 13  1  0
 13 14  2  0
 13 37  1  0
 14 15  1  0
 14 38  1  0
 15 16  1  0
 15 22  2  0
 16 17  2  0
 16 18  2  0
 16 19  1  6
 19 20  1  0
 19 21  1  0
 20 39  1  1
 20 40  1  0
 20 41  1  0
 21 42  1  1
 21 43  1  0
 21 44  1  0
 22 23  1  0
 22 45  1  0
 23 46  1  0
M  END
$$$$
