ZINC000001119324
     RDKit          3D

 47 48  0  0  1  0  0  0  0  0999 V2000
   -1.1448    1.4571   -1.7941 C   0  0  1  0  0  0  0  0  0  0  0  0
   -1.3671    0.7549   -3.0186 O   0  0  0  0  0  0  0  0  0  0  0  0
   -0.3502   -0.0227   -3.4778 C   0  0  0  0  0  0  0  0  0  0  0  0
    0.8334   -0.1109   -2.7601 C   0  0  0  0  0  0  0  0  0  0  0  0
    1.8665   -0.9006   -3.2254 C   0  0  0  0  0  0  0  0  0  0  0  0
    1.7199   -1.6066   -4.4121 C   0  0  0  0  0  0  0  0  0  0  0  0
    2.7659   -2.4074   -4.8841 N   0  0  0  0  0  0  0  0  0  0  0  0
    3.1360   -3.6284   -4.1641 C   0  0  1  0  0  0  0  0  0  0  0  0
    4.0149   -4.0732   -4.6308 H   0  0  0  0  0  0  0  0  0  0  0  0
    3.4511   -3.2853   -2.7067 C   0  0  1  0  0  0  0  0  0  0  0  0
    1.9913   -4.6073   -4.2135 C   0  0  0  0  0  0  0  0  0  0  0  0
    0.8543   -4.2048   -4.3413 O   0  0  0  0  0  0  0  0  0  0  0  0
    2.2310   -5.9300   -4.1159 N   0  0  0  0  0  0  0  0  0  0  0  0
    1.1816   -6.8439   -4.2626 C   0  0  0  0  0  0  0  0  0  0  0  0
    1.1693   -8.0149   -3.5162 C   0  0  0  0  0  0  0  0  0  0  0  0
    0.1321   -8.9149   -3.6633 C   0  0  0  0  0  0  0  0  0  0  0  0
   -0.8931   -8.6513   -4.5530 C   0  0  0  0  0  0  0  0  0  0  0  0
   -2.0230   -9.6358   -4.7114 C   0  0  1  0  0  0  0  0  0  0  0  0
   -3.0429   -9.3248   -3.8057 F   0  0  0  0  0  0  0  0  0  0  0  0
   -2.5217   -9.5673   -6.0167 F   0  0  0  0  0  0  0  0  0  0  0  0
   -1.5534  -10.9292   -4.4588 F   0  0  0  0  0  0  0  0  0  0  0  0
   -0.8840   -7.4859   -5.2974 C   0  0  0  0  0  0  0  0  0  0  0  0
    0.1474   -6.5791   -5.1507 C   0  0  0  0  0  0  0  0  0  0  0  0
    3.5854   -1.9750   -6.2566 S   0  0  1  0  0  0  0  0  0  0  0  0
    4.9501   -0.9387   -5.6614 C   0  0  1  0  0  0  0  0  0  0  0  0
    4.0801   -3.2037   -6.7712 O   0  0  0  0  0  0  0  0  0  0  0  0
    2.6516   -1.1958   -6.9915 O   0  0  0  0  0  0  0  0  0  0  0  0
    0.5346   -1.5178   -5.1300 C   0  0  0  0  0  0  0  0  0  0  0  0
   -0.4994   -0.7317   -4.6605 C   0  0  0  0  0  0  0  0  0  0  0  0
   -0.9400    0.7422   -0.9972 H   0  0  0  0  0  0  0  0  0  0  0  0
   -0.2927    2.1271   -1.9090 H   0  0  0  0  0  0  0  0  0  0  0  0
   -2.0322    2.0378   -1.5420 H   0  0  0  0  0  0  0  0  0  0  0  0
    0.9474    0.4385   -1.8373 H   0  0  0  0  0  0  0  0  0  0  0  0
    2.7881   -0.9689   -2.6666 H   0  0  0  0  0  0  0  0  0  0  0  0
    2.5442   -2.9397   -2.2106 H   0  0  0  0  0  0  0  0  0  0  0  0
    3.8279   -4.1726   -2.1979 H   0  0  0  0  0  0  0  0  0  0  0  0
    4.2055   -2.4994   -2.6734 H   0  0  0  0  0  0  0  0  0  0  0  0
    3.1310   -6.2484   -3.9439 H   0  0  0  0  0  0  0  0  0  0  0  0
    1.9701   -8.2217   -2.8216 H   0  0  0  0  0  0  0  0  0  0  0  0
    0.1219   -9.8258   -3.0831 H   0  0  0  0  0  0  0  0  0  0  0  0
   -1.6862   -7.2829   -5.9915 H   0  0  0  0  0  0  0  0  0  0  0  0
    0.1540   -5.6692   -5.7324 H   0  0  0  0  0  0  0  0  0  0  0  0
    5.6550   -1.5529   -5.1009 H   0  0  0  0  0  0  0  0  0  0  0  0
    5.4595   -0.4851   -6.5116 H   0  0  0  0  0  0  0  0  0  0  0  0
    4.5559   -0.1554   -5.0139 H   0  0  0  0  0  0  0  0  0  0  0  0
    0.4198   -2.0665   -6.0532 H   0  0  0  0  0  0  0  0  0  0  0  0
   -1.4215   -0.6628   -5.2186 H   0  0  0  0  0  0  0  0  0  0  0  0
  1  2  1  0
  1 30  1  1
  1 31  1  0
  1 32  1  0
  2  3  1  0
  3 29  2  0
  3  4  1  0
  4  5  2  0
  4 33  1  0
  5  6  1  0
  5 34  1  0
  6  7  1  0
  6 28  2  0
  7  8  1  0
 24  7  1  1
  8  9  1  6
  8 10  1  0
  8 11  1  0
 10 35  1  1
 10 36  1  0
 10 37  1  0
 11 12  2  0
 11 13  1  0
 13 14  1  0
 13 38  1  0
 14 23  2  0
 14 15  1  0
 15 16  2  0
 15 39  1  0
 16 17  1  0
 16 40  1  0
 17 18  1  0
 17 22  2  0
 18 19  1  1
 18 20  1  0
 18 21  1  0
 22 23  1  0
 22 41  1  0
 23 42  1  0
 24 25  1  0
 24 26  2  0
 24 27  2  0
 25 43  1  1
 25 44  1  0
 25 45  1  0
 28 29  1  0
 28 46  1  0
 29 47  1  0
M  END
$$$$
