ZINC000237809524
     RDKit          3D

 39 40  0  0  1  0  0  0  0  0999 V2000
   -0.4032    1.1470    0.2059 C   0  0  1  0  0  0  0  0  0  0  0  0
   -0.1794   -0.3427    0.2507 C   0  0  0  0  0  0  0  0  0  0  0  0
   -0.2889   -1.0930   -0.9048 C   0  0  0  0  0  0  0  0  0  0  0  0
   -0.0836   -2.4596   -0.8637 C   0  0  0  0  0  0  0  0  0  0  0  0
    0.2315   -3.0754    0.3329 C   0  0  0  0  0  0  0  0  0  0  0  0
    0.4548   -4.5651    0.3778 C   0  0  1  0  0  0  0  0  0  0  0  0
    0.2895   -5.1003   -0.9042 F   0  0  0  0  0  0  0  0  0  0  0  0
    1.7524   -4.8288    0.8294 F   0  0  0  0  0  0  0  0  0  0  0  0
   -0.4702   -5.1492    1.2498 F   0  0  0  0  0  0  0  0  0  0  0  0
    0.3423   -2.3246    1.4885 C   0  0  0  0  0  0  0  0  0  0  0  0
    0.1409   -0.9579    1.4467 C   0  0  0  0  0  0  0  0  0  0  0  0
    0.2821   -0.0011    2.9195 S   0  0  1  0  0  0  0  0  0  0  0  0
   -0.8772    0.8185    2.9783 O   0  0  0  0  0  0  0  0  0  0  0  0
    0.6474   -0.9060    3.9524 O   0  0  0  0  0  0  0  0  0  0  0  0
    1.5684    1.0222    2.7178 N   0  0  0  0  0  0  0  0  0  0  0  0
    1.4869    2.4312    2.2918 C   0  0  1  0  0  0  0  0  0  0  0  0
    2.7782    3.0870    2.8414 C   0  0  1  0  0  0  0  0  0  0  0  0
    3.8120    1.9455    2.6526 C   0  0  1  0  0  0  0  0  0  0  0  0
    2.9803    0.6779    2.9401 C   0  0  2  0  0  0  0  0  0  0  0  0
    3.1318    0.3613    3.9721 H   0  0  0  0  0  0  0  0  0  0  0  0
    3.3949   -0.4440    1.9859 C   0  0  1  0  0  0  0  0  0  0  0  0
    4.7826   -0.8367    2.2653 N   0  0  1  0  0  0  0  0  0  0  0  0
    5.3798   -0.0254    2.2078 H   0  0  0  0  0  0  0  0  0  0  0  0
    4.8402   -1.2318    3.1919 H   0  0  0  0  0  0  0  0  0  0  0  0
    5.0809   -1.5226    1.5880 H   0  0  0  0  0  0  0  0  0  0  0  0
    0.5513    1.6536    0.0632 H   0  0  0  0  0  0  0  0  0  0  0  0
   -1.0705    1.3894   -0.6212 H   0  0  0  0  0  0  0  0  0  0  0  0
   -0.8523    1.4753    1.1432 H   0  0  0  0  0  0  0  0  0  0  0  0
   -0.5351   -0.6118   -1.8398 H   0  0  0  0  0  0  0  0  0  0  0  0
   -0.1698   -3.0460   -1.7665 H   0  0  0  0  0  0  0  0  0  0  0  0
    0.5889   -2.8058    2.4235 H   0  0  0  0  0  0  0  0  0  0  0  0
    1.4609    2.4977    1.2041 H   0  0  0  0  0  0  0  0  0  0  0  0
    0.6063    2.9075    2.7229 H   0  0  0  0  0  0  0  0  0  0  0  0
    3.0520    3.9632    2.2537 H   0  0  0  0  0  0  0  0  0  0  0  0
    2.6679    3.3440    3.8949 H   0  0  0  0  0  0  0  0  0  0  0  0
    4.1947    1.9368    1.6321 H   0  0  0  0  0  0  0  0  0  0  0  0
    4.6267    2.0405    3.3704 H   0  0  0  0  0  0  0  0  0  0  0  0
    2.7387   -1.3027    2.1278 H   0  0  0  0  0  0  0  0  0  0  0  0
    3.3167   -0.0931    0.9569 H   0  0  0  0  0  0  0  0  0  0  0  0
  1  2  1  0
  1 26  1  6
  1 27  1  0
  1 28  1  0
  2 11  2  0
  2  3  1  0
  3  4  2  0
  3 29  1  0
  4  5  1  0
  4 30  1  0
  5  6  1  0
  5 10  2  0
  6  7  1  6
  6  8  1  0
  6  9  1  0
 10 11  1  0
 10 31  1  0
 11 12  1  0
 12 13  2  0
 12 14  2  0
 12 15  1  6
 15 19  1  0
 15 16  1  0
 16 17  1  0
 16 32  1  6
 16 33  1  0
 17 18  1  0
 17 34  1  6
 17 35  1  0
 18 19  1  0
 18 36  1  6
 18 37  1  0
 19 20  1  1
 19 21  1  0
 21 22  1  0
 21 38  1  6
 21 39  1  0
 22 23  1  1
 22 24  1  0
 22 25  1  0
M  CHG  1  22   1
M  END
$$$$
