ZINC000226073176
     RDKit          3D

 61 63  0  0  0  0  0  0  0  0999 V2000
   -0.0187    1.5258    0.0104 C   0  0  1  0  0  0  0  0  0  0  0  0
    0.0021   -0.0041    0.0020 C   0  0  1  0  0  0  0  0  0  0  0  0
   -1.3723   -0.5112    0.0124 N   0  0  0  0  0  0  0  0  0  0  0  0
   -2.1099   -0.6542   -1.2453 C   0  0  1  0  0  0  0  0  0  0  0  0
   -1.7778   -1.9829   -1.8740 C   0  0  0  0  0  0  0  0  0  0  0  0
   -1.0015   -2.7362   -1.3256 O   0  0  0  0  0  0  0  0  0  0  0  0
   -2.3435   -2.3340   -3.0459 N   0  0  0  0  0  0  0  0  0  0  0  0
   -2.0207   -3.6257   -3.6571 C   0  0  1  0  0  0  0  0  0  0  0  0
   -2.7910   -3.7751   -4.9706 C   0  0  1  0  0  0  0  0  0  0  0  0
   -2.4589   -5.1038   -5.5994 C   0  0  0  0  0  0  0  0  0  0  0  0
   -1.3937   -5.2074   -6.4743 C   0  0  0  0  0  0  0  0  0  0  0  0
   -1.0891   -6.4262   -7.0511 C   0  0  0  0  0  0  0  0  0  0  0  0
   -1.8495   -7.5414   -6.7525 C   0  0  0  0  0  0  0  0  0  0  0  0
   -1.4616   -9.0949   -7.4881 S   0  0  1  0  0  0  0  0  0  0  0  0
   -2.6572   -9.8622   -7.4593 O   0  0  0  0  0  0  0  0  0  0  0  0
   -0.7521   -8.8061   -8.6850 O   0  0  0  0  0  0  0  0  0  0  0  0
   -0.3907   -9.8596   -6.4827 N   0  0  0  0  0  0  0  0  0  0  0  0
    1.0738   -9.7454   -6.5444 C   0  0  1  0  0  0  0  0  0  0  0  0
    1.6509  -10.6497   -5.4350 C   0  0  1  0  0  0  0  0  0  0  0  0
    0.5019  -11.6599   -5.1772 C   0  0  1  0  0  0  0  0  0  0  0  0
   -0.7482  -10.7626   -5.3736 C   0  0  1  0  0  0  0  0  0  0  0  0
   -2.9138   -7.4381   -5.8765 C   0  0  0  0  0  0  0  0  0  0  0  0
   -3.2160   -6.2201   -5.2968 C   0  0  0  0  0  0  0  0  0  0  0  0
   -2.0922   -0.9227    1.4458 S   0  0  1  0  0  0  0  0  0  0  0  0
   -3.1196   -1.8512    1.1269 O   0  0  0  0  0  0  0  0  0  0  0  0
   -1.0393   -1.2108    2.3555 O   0  0  0  0  0  0  0  0  0  0  0  0
   -2.8978    0.5199    2.0580 C   0  0  0  0  0  0  0  0  0  0  0  0
   -2.2156    1.3954    2.8820 C   0  0  0  0  0  0  0  0  0  0  0  0
   -2.8476    2.5271    3.3622 C   0  0  0  0  0  0  0  0  0  0  0  0
   -4.1616    2.7836    3.0181 C   0  0  0  0  0  0  0  0  0  0  0  0
   -4.8435    1.9086    2.1933 C   0  0  0  0  0  0  0  0  0  0  0  0
   -4.2102    0.7790    1.7096 C   0  0  0  0  0  0  0  0  0  0  0  0
    1.0039    1.9031    0.0027 H   0  0  0  0  0  0  0  0  0  0  0  0
   -0.5459    1.8868   -0.8726 H   0  0  0  0  0  0  0  0  0  0  0  0
   -0.5289    1.8773    0.9072 H   0  0  0  0  0  0  0  0  0  0  0  0
    0.5123   -0.3556   -0.8948 H   0  0  0  0  0  0  0  0  0  0  0  0
    0.5293   -0.3651    0.8851 H   0  0  0  0  0  0  0  0  0  0  0  0
   -3.1804   -0.6037   -1.0465 H   0  0  0  0  0  0  0  0  0  0  0  0
   -1.8283    0.1500   -1.9251 H   0  0  0  0  0  0  0  0  0  0  0  0
   -2.9644   -1.7315   -3.4845 H   0  0  0  0  0  0  0  0  0  0  0  0
   -0.9502   -3.6762   -3.8559 H   0  0  0  0  0  0  0  0  0  0  0  0
   -2.3023   -4.4299   -2.9773 H   0  0  0  0  0  0  0  0  0  0  0  0
   -3.8615   -3.7246   -4.7718 H   0  0  0  0  0  0  0  0  0  0  0  0
   -2.5094   -2.9709   -5.6504 H   0  0  0  0  0  0  0  0  0  0  0  0
   -0.7997   -4.3362   -6.7075 H   0  0  0  0  0  0  0  0  0  0  0  0
   -0.2574   -6.5071   -7.7352 H   0  0  0  0  0  0  0  0  0  0  0  0
    1.4310  -10.0798   -7.5184 H   0  0  0  0  0  0  0  0  0  0  0  0
    1.3725   -8.7113   -6.3726 H   0  0  0  0  0  0  0  0  0  0  0  0
    2.5461  -11.1646   -5.7839 H   0  0  0  0  0  0  0  0  0  0  0  0
    1.8636  -10.0700   -4.5367 H   0  0  0  0  0  0  0  0  0  0  0  0
    0.5235  -12.4704   -5.9057 H   0  0  0  0  0  0  0  0  0  0  0  0
    0.5450  -12.0496   -4.1601 H   0  0  0  0  0  0  0  0  0  0  0  0
   -0.9538  -10.1946   -4.4663 H   0  0  0  0  0  0  0  0  0  0  0  0
   -1.6117  -11.3693   -5.6462 H   0  0  0  0  0  0  0  0  0  0  0  0
   -3.5076   -8.3094   -5.6430 H   0  0  0  0  0  0  0  0  0  0  0  0
   -4.0476   -6.1393   -4.6124 H   0  0  0  0  0  0  0  0  0  0  0  0
   -1.1890    1.1950    3.1509 H   0  0  0  0  0  0  0  0  0  0  0  0
   -2.3149    3.2108    4.0066 H   0  0  0  0  0  0  0  0  0  0  0  0
   -4.6556    3.6674    3.3939 H   0  0  0  0  0  0  0  0  0  0  0  0
   -5.8703    2.1088    1.9247 H   0  0  0  0  0  0  0  0  0  0  0  0
   -4.7429    0.0954    1.0653 H   0  0  0  0  0  0  0  0  0  0  0  0
  1  2  1  0
  1 33  1  6
  1 34  1  0
  1 35  1  0
  2  3  1  0
  2 36  1  6
  2 37  1  0
  3  4  1  0
 24  3  1  6
  4  5  1  0
  4 38  1  1
  4 39  1  0
  5  6  2  0
  5  7  1  0
  7  8  1  0
  7 40  1  0
  8  9  1  0
  8 41  1  6
  8 42  1  0
  9 10  1  0
  9 43  1  1
  9 44  1  0
 10 23  2  0
 10 11  1  0
 11 12  2  0
 11 45  1  0
 12 13  1  0
 12 46  1  0
 13 14  1  0
 13 22  2  0
 14 15  2  0
 14 16  2  0
 14 17  1  1
 17 21  1  0
 17 18  1  0
 18 19  1  0
 18 47  1  6
 18 48  1  0
 19 20  1  0
 19 49  1  6
 19 50  1  0
 20 21  1  0
 20 51  1  6
 20 52  1  0
 21 53  1  1
 21 54  1  0
 22 23  1  0
 22 55  1  0
 23 56  1  0
 24 25  2  0
 24 26  2  0
 24 27  1  0
 27 32  2  0
 27 28  1  0
 28 29  2  0
 28 57  1  0
 29 30  1  0
 29 58  1  0
 30 31  2  0
 30 59  1  0
 31 32  1  0
 31 60  1  0
 32 61  1  0
M  END
$$$$
