ZINC000003414129
     RDKit          3D

 43 44  0  0  0  0  0  0  0  0999 V2000
   -0.0162    1.3436    0.0094 N   0  0  0  0  0  0  0  0  0  0  0  0
    0.0021   -0.0041    0.0020 C   0  0  0  0  0  0  0  0  0  0  0  0
    1.0631   -0.5976   -0.0113 O   0  0  0  0  0  0  0  0  0  0  0  0
   -1.1558   -0.6938    0.0094 N   0  0  0  0  0  0  0  0  0  0  0  0
   -1.1360   -2.1586    0.0013 C   0  0  1  0  0  0  0  0  0  0  0  0
   -2.5498   -2.6802    0.0120 C   0  0  0  0  0  0  0  0  0  0  0  0
   -3.4822   -1.9047    0.0251 O   0  0  0  0  0  0  0  0  0  0  0  0
   -2.7780   -4.0085    0.0071 N   0  0  0  0  0  0  0  0  0  0  0  0
   -1.6579   -4.9599   -0.0026 C   0  0  1  0  0  0  0  0  0  0  0  0
   -1.8151   -5.9140    1.1880 C   0  0  1  0  0  0  0  0  0  0  0  0
   -3.1885   -6.4369    1.1926 N   0  0  0  0  0  0  0  0  0  0  0  0
   -3.4690   -8.0690    1.1876 S   0  0  1  0  0  0  0  0  0  0  0  0
   -4.7712   -8.2507    0.6488 O   0  0  0  0  0  0  0  0  0  0  0  0
   -2.3079   -8.6740    0.6352 O   0  0  0  0  0  0  0  0  0  0  0  0
   -3.5491   -8.5895    2.8691 C   0  0  0  0  0  0  0  0  0  0  0  0
   -4.7305   -9.0908    3.3818 C   0  0  0  0  0  0  0  0  0  0  0  0
   -4.7936   -9.4993    4.7012 C   0  0  0  0  0  0  0  0  0  0  0  0
   -6.0821  -10.0459    5.2596 C   0  0  1  0  0  0  0  0  0  0  0  0
   -6.1205  -11.4319    5.0729 F   0  0  0  0  0  0  0  0  0  0  0  0
   -6.1576   -9.7572    6.6264 F   0  0  0  0  0  0  0  0  0  0  0  0
   -7.1645   -9.4561    4.5980 F   0  0  0  0  0  0  0  0  0  0  0  0
   -3.6751   -9.4070    5.5080 C   0  0  0  0  0  0  0  0  0  0  0  0
   -2.4928   -8.9057    4.9963 C   0  0  0  0  0  0  0  0  0  0  0  0
   -2.4277   -8.5018    3.6749 C   0  0  0  0  0  0  0  0  0  0  0  0
   -0.9433   -7.8721    3.0315 Cl  0  0  0  0  0  0  0  0  0  0  0  0
   -4.3086   -5.4855    1.2022 C   0  0  1  0  0  0  0  0  0  0  0  0
   -4.1515   -4.5315    0.0174 C   0  0  1  0  0  0  0  0  0  0  0  0
    0.8172    1.8399    0.0041 H   0  0  0  0  0  0  0  0  0  0  0  0
   -0.8627    1.8171    0.0160 H   0  0  0  0  0  0  0  0  0  0  0  0
   -2.0023   -0.2203    0.0200 H   0  0  0  0  0  0  0  0  0  0  0  0
   -0.6258   -2.5101   -0.8955 H   0  0  0  0  0  0  0  0  0  0  0  0
   -0.6088   -2.5197    0.8844 H   0  0  0  0  0  0  0  0  0  0  0  0
   -1.6697   -5.5295   -0.9318 H   0  0  0  0  0  0  0  0  0  0  0  0
   -0.7165   -4.4175    0.0850 H   0  0  0  0  0  0  0  0  0  0  0  0
   -1.1097   -6.7393    1.0909 H   0  0  0  0  0  0  0  0  0  0  0  0
   -1.6257   -5.3749    2.1162 H   0  0  0  0  0  0  0  0  0  0  0  0
   -5.6047   -9.1632    2.7518 H   0  0  0  0  0  0  0  0  0  0  0  0
   -3.7250   -9.7262    6.5385 H   0  0  0  0  0  0  0  0  0  0  0  0
   -1.6190   -8.8336    5.6268 H   0  0  0  0  0  0  0  0  0  0  0  0
   -5.2500   -6.0279    1.1146 H   0  0  0  0  0  0  0  0  0  0  0  0
   -4.2968   -4.9159    2.1315 H   0  0  0  0  0  0  0  0  0  0  0  0
   -4.8573   -3.7067    0.1156 H   0  0  0  0  0  0  0  0  0  0  0  0
   -4.3397   -5.0686   -0.9122 H   0  0  0  0  0  0  0  0  0  0  0  0
  1  2  1  0
  1 28  1  0
  1 29  1  0
  2  3  2  0
  2  4  1  0
  4  5  1  0
  4 30  1  0
  5  6  1  0
  5 31  1  6
  5 32  1  0
  6  7  2  0
  6  8  1  0
  8 27  1  0
  8  9  1  0
  9 10  1  0
  9 33  1  6
  9 34  1  0
 10 11  1  0
 10 35  1  6
 10 36  1  0
 12 11  1  1
 11 26  1  0
 12 13  2  0
 12 14  2  0
 12 15  1  0
 15 24  2  0
 15 16  1  0
 16 17  2  0
 16 37  1  0
 17 18  1  0
 17 22  1  0
 18 19  1  1
 18 20  1  0
 18 21  1  0
 22 23  2  0
 22 38  1  0
 23 24  1  0
 23 39  1  0
 24 25  1  0
 26 27  1  0
 26 40  1  6
 26 41  1  0
 27 42  1  1
 27 43  1  0
M  END
$$$$
