ZINC000004785188
     RDKit          3D

 46 48  0  0  1  0  0  0  0  0999 V2000
    0.0082    1.4961   -0.0021 C   0  0  1  0  0  0  0  0  0  0  0  0
    0.0269   -0.0107   -0.0068 C   0  0  0  0  0  0  0  0  0  0  0  0
    0.0394   -0.7872   -1.0516 N   0  0  0  0  0  0  0  0  0  0  0  0
    0.0534   -1.9550   -0.7383 O   0  0  0  0  0  0  0  0  0  0  0  0
    0.0520   -2.1080    0.5934 C   0  0  0  0  0  0  0  0  0  0  0  0
    0.0670   -3.4100    1.3520 C   0  0  1  0  0  0  0  0  0  0  0  0
    0.0405   -0.8611    1.1225 C   0  0  0  0  0  0  0  0  0  0  0  0
    0.0332   -0.4049    2.8244 S   0  0  1  0  0  0  0  0  0  0  0  0
   -0.5223    0.9016    2.8872 O   0  0  0  0  0  0  0  0  0  0  0  0
   -0.5035   -1.5126    3.5345 O   0  0  0  0  0  0  0  0  0  0  0  0
    1.6129   -0.2647    3.3011 N   0  0  0  0  0  0  0  0  0  0  0  0
    2.4434   -1.3507    3.8528 C   0  0  1  0  0  0  0  0  0  0  0  0
    3.9025   -0.9256    3.5525 C   0  0  1  0  0  0  0  0  0  0  0  0
    3.8293    0.6098    3.7629 C   0  0  1  0  0  0  0  0  0  0  0  0
    2.4213    0.9617    3.2384 C   0  0  2  0  0  0  0  0  0  0  0  0
    2.4868    1.3162    2.2097 H   0  0  0  0  0  0  0  0  0  0  0  0
    1.8012    2.0248    4.1081 C   0  0  0  0  0  0  0  0  0  0  0  0
    0.7750    1.7924    4.7114 O   0  0  0  0  0  0  0  0  0  0  0  0
    2.3871    3.2338    4.2155 N   0  0  0  0  0  0  0  0  0  0  0  0
    1.7621    4.2518    4.9443 C   0  0  0  0  0  0  0  0  0  0  0  0
    1.8675    5.5718    4.5267 C   0  0  0  0  0  0  0  0  0  0  0  0
    1.2495    6.5744    5.2485 C   0  0  0  0  0  0  0  0  0  0  0  0
    0.5269    6.2647    6.3858 C   0  0  0  0  0  0  0  0  0  0  0  0
    0.4204    4.9510    6.8046 C   0  0  0  0  0  0  0  0  0  0  0  0
   -0.3682    4.6179    8.0449 C   0  0  1  0  0  0  0  0  0  0  0  0
   -0.8929    5.7931    8.5934 F   0  0  0  0  0  0  0  0  0  0  0  0
   -1.4145    3.7504    7.7133 F   0  0  0  0  0  0  0  0  0  0  0  0
    0.4707    4.0012    8.9793 F   0  0  0  0  0  0  0  0  0  0  0  0
    1.0304    3.9433    6.0838 C   0  0  0  0  0  0  0  0  0  0  0  0
    1.0313    1.8722   -0.0037 H   0  0  0  0  0  0  0  0  0  0  0  0
   -0.5125    1.8558   -0.8895 H   0  0  0  0  0  0  0  0  0  0  0  0
   -0.5076    1.8503    0.8905 H   0  0  0  0  0  0  0  0  0  0  0  0
    0.0792   -4.2412    0.6469 H   0  0  0  0  0  0  0  0  0  0  0  0
    0.9562   -3.4539    1.9808 H   0  0  0  0  0  0  0  0  0  0  0  0
   -0.8236   -3.4767    1.9769 H   0  0  0  0  0  0  0  0  0  0  0  0
    2.2876   -1.4386    4.9280 H   0  0  0  0  0  0  0  0  0  0  0  0
    2.2133   -2.2936    3.3569 H   0  0  0  0  0  0  0  0  0  0  0  0
    4.5960   -1.3840    4.2576 H   0  0  0  0  0  0  0  0  0  0  0  0
    4.1761   -1.1666    2.5252 H   0  0  0  0  0  0  0  0  0  0  0  0
    3.9246    0.8592    4.8197 H   0  0  0  0  0  0  0  0  0  0  0  0
    4.5949    1.1166    3.1754 H   0  0  0  0  0  0  0  0  0  0  0  0
    3.2419    3.3983    3.7876 H   0  0  0  0  0  0  0  0  0  0  0  0
    2.4324    5.8144    3.6388 H   0  0  0  0  0  0  0  0  0  0  0  0
    1.3311    7.6013    4.9242 H   0  0  0  0  0  0  0  0  0  0  0  0
    0.0449    7.0505    6.9485 H   0  0  0  0  0  0  0  0  0  0  0  0
    0.9468    2.9176    6.4114 H   0  0  0  0  0  0  0  0  0  0  0  0
  1  2  1  0
  1 30  1  1
  1 31  1  0
  1 32  1  0
  2  7  1  0
  2  3  2  0
  3  4  1  0
  4  5  1  0
  5  6  1  0
  5  7  2  0
  6 33  1  6
  6 34  1  0
  6 35  1  0
  7  8  1  0
  8  9  2  0
  8 10  2  0
  8 11  1  1
 11 15  1  0
 11 12  1  0
 12 13  1  0
 12 36  1  1
 12 37  1  0
 13 14  1  0
 13 38  1  1
 13 39  1  0
 14 15  1  0
 14 40  1  1
 14 41  1  0
 15 16  1  6
 15 17  1  0
 17 18  2  0
 17 19  1  0
 19 20  1  0
 19 42  1  0
 20 29  2  0
 20 21  1  0
 21 22  2  0
 21 43  1  0
 22 23  1  0
 22 44  1  0
 23 24  2  0
 23 45  1  0
 24 25  1  0
 24 29  1  0
 25 26  1  1
 25 27  1  0
 25 28  1  0
 29 46  1  0
M  END
$$$$
