ZINC000032753235
     RDKit          3D

 45 46  0  0  0  0  0  0  0  0999 V2000
   -0.0178    1.4648    0.0101 C   0  0  1  0  0  0  0  0  0  0  0  0
    0.0021   -0.0041    0.0020 N   0  0  0  0  0  0  0  0  0  0  0  0
    0.7859   -0.5261    1.1294 C   0  0  1  0  0  0  0  0  0  0  0  0
   -1.3620   -0.5491    0.0121 C   0  0  1  0  0  0  0  0  0  0  0  0
   -1.3118   -2.0335   -0.2431 C   0  0  0  0  0  0  0  0  0  0  0  0
   -0.2447   -2.5832   -0.4163 O   0  0  0  0  0  0  0  0  0  0  0  0
   -2.4526   -2.7501   -0.2788 N   0  0  0  0  0  0  0  0  0  0  0  0
   -3.7533   -2.0964   -0.0767 C   0  0  1  0  0  0  0  0  0  0  0  0
   -4.6532   -2.4139   -1.2773 C   0  0  1  0  0  0  0  0  0  0  0  0
   -4.6190   -3.8631   -1.5196 N   0  0  0  0  0  0  0  0  0  0  0  0
   -6.0209   -4.7434   -1.5646 S   0  0  1  0  0  0  0  0  0  0  0  0
   -5.6627   -6.0841   -1.2589 O   0  0  0  0  0  0  0  0  0  0  0  0
   -6.9814   -4.0066   -0.8204 O   0  0  0  0  0  0  0  0  0  0  0  0
   -6.5814   -4.7466   -3.2350 C   0  0  0  0  0  0  0  0  0  0  0  0
   -7.4283   -3.7496   -3.6818 C   0  0  0  0  0  0  0  0  0  0  0  0
   -7.8681   -3.7521   -4.9923 C   0  0  0  0  0  0  0  0  0  0  0  0
   -7.4605   -4.7514   -5.8562 C   0  0  0  0  0  0  0  0  0  0  0  0
   -7.9403   -4.7544   -7.2848 C   0  0  1  0  0  0  0  0  0  0  0  0
   -7.0470   -4.0265   -8.0783 F   0  0  0  0  0  0  0  0  0  0  0  0
   -8.0107   -6.0718   -7.7503 F   0  0  0  0  0  0  0  0  0  0  0  0
   -9.2085   -4.1676   -7.3520 F   0  0  0  0  0  0  0  0  0  0  0  0
   -6.6124   -5.7476   -5.4098 C   0  0  0  0  0  0  0  0  0  0  0  0
   -6.1696   -5.7429   -4.1003 C   0  0  0  0  0  0  0  0  0  0  0  0
   -3.3184   -4.5168   -1.7217 C   0  0  1  0  0  0  0  0  0  0  0  0
   -2.4188   -4.1984   -0.5266 C   0  0  1  0  0  0  0  0  0  0  0  0
    1.0047    1.8421    0.0024 H   0  0  0  0  0  0  0  0  0  0  0  0
   -0.5450    1.8259   -0.8730 H   0  0  0  0  0  0  0  0  0  0  0  0
   -0.5280    1.8163    0.9069 H   0  0  0  0  0  0  0  0  0  0  0  0
    0.3442   -0.1877    2.0667 H   0  0  0  0  0  0  0  0  0  0  0  0
    0.7843   -1.6157    1.0994 H   0  0  0  0  0  0  0  0  0  0  0  0
    1.8110   -0.1623    1.0586 H   0  0  0  0  0  0  0  0  0  0  0  0
   -1.8206   -0.3627    0.9832 H   0  0  0  0  0  0  0  0  0  0  0  0
   -1.9520   -0.0663   -0.7669 H   0  0  0  0  0  0  0  0  0  0  0  0
   -4.2144   -2.4736    0.8361 H   0  0  0  0  0  0  0  0  0  0  0  0
   -3.6127   -1.0182    0.0001 H   0  0  0  0  0  0  0  0  0  0  0  0
   -5.6753   -2.1033   -1.0606 H   0  0  0  0  0  0  0  0  0  0  0  0
   -4.2871   -1.8870   -2.1584 H   0  0  0  0  0  0  0  0  0  0  0  0
   -7.7468   -2.9690   -3.0068 H   0  0  0  0  0  0  0  0  0  0  0  0
   -8.5304   -2.9736   -5.3412 H   0  0  0  0  0  0  0  0  0  0  0  0
   -6.2937   -6.5280   -6.0849 H   0  0  0  0  0  0  0  0  0  0  0  0
   -5.5070   -6.5212   -3.7516 H   0  0  0  0  0  0  0  0  0  0  0  0
   -3.4589   -5.5950   -1.7985 H   0  0  0  0  0  0  0  0  0  0  0  0
   -2.8572   -4.1396   -2.6344 H   0  0  0  0  0  0  0  0  0  0  0  0
   -1.3972   -4.5095   -0.7446 H   0  0  0  0  0  0  0  0  0  0  0  0
   -2.7834   -4.7238    0.3560 H   0  0  0  0  0  0  0  0  0  0  0  0
  1  2  1  0
  1 26  1  6
  1 27  1  0
  1 28  1  0
  2  3  1  0
  2  4  1  0
  3 29  1  1
  3 30  1  0
  3 31  1  0
  4  5  1  0
  4 32  1  1
  4 33  1  0
  5  6  2  0
  5  7  1  0
  7 25  1  0
  7  8  1  0
  8  9  1  0
  8 34  1  1
  8 35  1  0
  9 10  1  0
  9 36  1  1
  9 37  1  0
 11 10  1  6
 10 24  1  0
 11 12  2  0
 11 13  2  0
 11 14  1  0
 14 23  2  0
 14 15  1  0
 15 16  2  0
 15 38  1  0
 16 17  1  0
 16 39  1  0
 17 18  1  0
 17 22  2  0
 18 19  1  6
 18 20  1  0
 18 21  1  0
 22 23  1  0
 22 40  1  0
 23 41  1  0
 24 25  1  0
 24 42  1  6
 24 43  1  0
 25 44  1  6
 25 45  1  0
M  END
$$$$
