ZINC000024712238
     RDKit          3D

 40 41  0  0  1  0  0  0  0  0999 V2000
   -0.4034    1.5762   -0.1850 C   0  0  1  0  0  0  0  0  0  0  0  0
   -0.6356    0.1299   -0.1592 N   0  0  0  0  0  0  0  0  0  0  0  0
   -1.3240   -0.4813    0.9804 C   0  0  1  0  0  0  0  0  0  0  0  0
   -0.2159   -0.6383   -1.1840 C   0  0  0  0  0  0  0  0  0  0  0  0
    0.4309   -0.1473   -2.0848 O   0  0  0  0  0  0  0  0  0  0  0  0
   -0.5502   -2.1076   -1.2104 C   0  0  2  0  0  0  0  0  0  0  0  0
   -1.5078   -2.2786   -0.7187 H   0  0  0  0  0  0  0  0  0  0  0  0
    0.5574   -2.9108   -0.4965 C   0  0  1  0  0  0  0  0  0  0  0  0
    0.6791   -4.1872   -1.3701 C   0  0  1  0  0  0  0  0  0  0  0  0
    0.4252   -3.6186   -2.7886 C   0  0  1  0  0  0  0  0  0  0  0  0
   -0.6104   -2.5817   -2.6008 N   0  0  0  0  0  0  0  0  0  0  0  0
   -1.6597   -2.0440   -3.7636 S   0  0  1  0  0  0  0  0  0  0  0  0
   -2.0666   -0.7419   -3.3658 O   0  0  0  0  0  0  0  0  0  0  0  0
   -1.0459   -2.3178   -5.0156 O   0  0  0  0  0  0  0  0  0  0  0  0
   -3.0960   -3.0612   -3.6806 C   0  0  0  0  0  0  0  0  0  0  0  0
   -3.1682   -4.2178   -4.4338 C   0  0  0  0  0  0  0  0  0  0  0  0
   -4.2952   -5.0160   -4.3686 C   0  0  0  0  0  0  0  0  0  0  0  0
   -5.3495   -4.6575   -3.5499 C   0  0  0  0  0  0  0  0  0  0  0  0
   -5.2770   -3.5010   -2.7958 C   0  0  0  0  0  0  0  0  0  0  0  0
   -6.4267   -3.1100   -1.9034 C   0  0  1  0  0  0  0  0  0  0  0  0
   -7.4434   -4.0653   -2.0072 F   0  0  0  0  0  0  0  0  0  0  0  0
   -5.9854   -3.0407   -0.5777 F   0  0  0  0  0  0  0  0  0  0  0  0
   -6.9186   -1.8609   -2.2971 F   0  0  0  0  0  0  0  0  0  0  0  0
   -4.1485   -2.7054   -2.8576 C   0  0  0  0  0  0  0  0  0  0  0  0
    0.5567    1.7984    0.2806 H   0  0  0  0  0  0  0  0  0  0  0  0
   -0.3957    1.9246   -1.2178 H   0  0  0  0  0  0  0  0  0  0  0  0
   -1.1986    2.0816    0.3630 H   0  0  0  0  0  0  0  0  0  0  0  0
   -2.3854   -0.5809    0.7529 H   0  0  0  0  0  0  0  0  0  0  0  0
   -0.9002   -1.4664    1.1752 H   0  0  0  0  0  0  0  0  0  0  0  0
   -1.1987    0.1487    1.8610 H   0  0  0  0  0  0  0  0  0  0  0  0
    1.4952   -2.3552   -0.4926 H   0  0  0  0  0  0  0  0  0  0  0  0
    0.2549   -3.1660    0.5192 H   0  0  0  0  0  0  0  0  0  0  0  0
    1.6774   -4.6183   -1.2950 H   0  0  0  0  0  0  0  0  0  0  0  0
   -0.0822   -4.9192   -1.1006 H   0  0  0  0  0  0  0  0  0  0  0  0
    1.3377   -3.1770   -3.1892 H   0  0  0  0  0  0  0  0  0  0  0  0
    0.0593   -4.4025   -3.4516 H   0  0  0  0  0  0  0  0  0  0  0  0
   -2.3444   -4.4979   -5.0735 H   0  0  0  0  0  0  0  0  0  0  0  0
   -4.3519   -5.9194   -4.9578 H   0  0  0  0  0  0  0  0  0  0  0  0
   -6.2302   -5.2807   -3.4996 H   0  0  0  0  0  0  0  0  0  0  0  0
   -4.0918   -1.8020   -2.2685 H   0  0  0  0  0  0  0  0  0  0  0  0
  1  2  1  0
  1 25  1  1
  1 26  1  0
  1 27  1  0
  2  3  1  0
  2  4  1  0
  3 28  1  6
  3 29  1  0
  3 30  1  0
  4  5  2  0
  4  6  1  0
  6  7  1  1
  6 11  1  0
  6  8  1  0
  8  9  1  0
  8 31  1  1
  8 32  1  0
  9 10  1  0
  9 33  1  6
  9 34  1  0
 10 11  1  0
 10 35  1  6
 10 36  1  0
 12 11  1  1
 12 13  2  0
 12 14  2  0
 12 15  1  0
 15 24  2  0
 15 16  1  0
 16 17  2  0
 16 37  1  0
 17 18  1  0
 17 38  1  0
 18 19  2  0
 18 39  1  0
 19 20  1  0
 19 24  1  0
 20 21  1  1
 20 22  1  0
 20 23  1  0
 24 40  1  0
M  END
$$$$
