ZINC000004454904
     RDKit          3D

 48 49  0  0  1  0  0  0  0  0999 V2000
   -0.0541    1.5399    0.0456 C   0  0  1  0  0  0  0  0  0  0  0  0
   -0.0381    0.0100    0.0371 C   0  0  1  0  0  0  0  0  0  0  0  0
    0.6778   -0.4774    1.2186 N   0  0  0  0  0  0  0  0  0  0  0  0
   -0.0299   -0.6318    2.4920 C   0  0  1  0  0  0  0  0  0  0  0  0
   -0.7211   -1.9962    2.5292 C   0  0  1  0  0  0  0  0  0  0  0  0
    2.2871   -0.8539    1.1148 S   0  0  1  0  0  0  0  0  0  0  0  0
    2.5527   -1.7732    2.1653 O   0  0  0  0  0  0  0  0  0  0  0  0
    2.5446   -1.1410   -0.2529 O   0  0  0  0  0  0  0  0  0  0  0  0
    3.1909    0.6103    1.4945 C   0  0  0  0  0  0  0  0  0  0  0  0
    3.5357    1.4890    0.4847 C   0  0  0  0  0  0  0  0  0  0  0  0
    4.2449    2.6397    0.7766 C   0  0  0  0  0  0  0  0  0  0  0  0
    4.6119    2.9146    2.0837 C   0  0  0  0  0  0  0  0  0  0  0  0
    5.3089    4.0459    2.3723 O   0  0  0  0  0  0  0  0  0  0  0  0
    5.6296    4.9072    1.2781 C   0  0  1  0  0  0  0  0  0  0  0  0
    4.2646    2.0293    3.1020 C   0  0  0  0  0  0  0  0  0  0  0  0
    4.6327    2.3023    4.4261 N   0  0  0  0  0  0  0  0  0  0  0  0
    4.7582    1.2945    5.3122 C   0  0  0  0  0  0  0  0  0  0  0  0
    4.6513    0.1445    4.9418 O   0  0  0  0  0  0  0  0  0  0  0  0
    5.0314    1.5965    6.7631 C   0  0  2  0  0  0  0  0  0  0  0  0
    4.2637    2.2653    7.1524 H   0  0  0  0  0  0  0  0  0  0  0  0
    6.4210    2.2533    6.9088 C   0  0  1  0  0  0  0  0  0  0  0  0
    6.9601    1.5988    8.2099 C   0  0  1  0  0  0  0  0  0  0  0  0
    6.3435    0.1814    8.1035 C   0  0  1  0  0  0  0  0  0  0  0  0
    5.0445    0.3797    7.5186 O   0  0  0  0  0  0  0  0  0  0  0  0
    3.5484    0.8801    2.8024 C   0  0  0  0  0  0  0  0  0  0  0  0
    0.9695    1.9141    0.0301 H   0  0  0  0  0  0  0  0  0  0  0  0
   -0.5868    1.9026   -0.8335 H   0  0  0  0  0  0  0  0  0  0  0  0
   -0.5565    1.8931    0.9462 H   0  0  0  0  0  0  0  0  0  0  0  0
   -1.0618   -0.3641    0.0525 H   0  0  0  0  0  0  0  0  0  0  0  0
    0.4642   -0.3431   -0.8635 H   0  0  0  0  0  0  0  0  0  0  0  0
    0.6824   -0.5628    3.3142 H   0  0  0  0  0  0  0  0  0  0  0  0
   -0.7762    0.1564    2.5908 H   0  0  0  0  0  0  0  0  0  0  0  0
   -1.4334   -2.0652    1.7070 H   0  0  0  0  0  0  0  0  0  0  0  0
    0.0252   -2.7844    2.4304 H   0  0  0  0  0  0  0  0  0  0  0  0
   -1.2477   -2.1111    3.4766 H   0  0  0  0  0  0  0  0  0  0  0  0
    3.2507    1.2762   -0.5350 H   0  0  0  0  0  0  0  0  0  0  0  0
    4.5130    3.3240   -0.0147 H   0  0  0  0  0  0  0  0  0  0  0  0
    6.2385    4.3646    0.5550 H   0  0  0  0  0  0  0  0  0  0  0  0
    4.7102    5.2439    0.7991 H   0  0  0  0  0  0  0  0  0  0  0  0
    6.1849    5.7702    1.6457 H   0  0  0  0  0  0  0  0  0  0  0  0
    4.7972    3.2167    4.7051 H   0  0  0  0  0  0  0  0  0  0  0  0
    7.0572    2.0077    6.0585 H   0  0  0  0  0  0  0  0  0  0  0  0
    6.3292    3.3330    7.0269 H   0  0  0  0  0  0  0  0  0  0  0  0
    8.0492    1.5548    8.2053 H   0  0  0  0  0  0  0  0  0  0  0  0
    6.5937    2.1214    9.0935 H   0  0  0  0  0  0  0  0  0  0  0  0
    6.9562   -0.4505    7.4605 H   0  0  0  0  0  0  0  0  0  0  0  0
    6.2477   -0.2648    9.0933 H   0  0  0  0  0  0  0  0  0  0  0  0
    3.2773    0.1920    3.5894 H   0  0  0  0  0  0  0  0  0  0  0  0
  1  2  1  0
  1 26  1  6
  1 27  1  0
  1 28  1  0
  2  3  1  0
  2 29  1  1
  2 30  1  0
  3  4  1  0
  6  3  1  6
  4  5  1  0
  4 31  1  1
  4 32  1  0
  5 33  1  6
  5 34  1  0
  5 35  1  0
  6  7  2  0
  6  8  2  0
  6  9  1  0
  9 25  2  0
  9 10  1  0
 10 11  2  0
 10 36  1  0
 11 12  1  0
 11 37  1  0
 12 13  1  0
 12 15  2  0
 13 14  1  0
 14 38  1  6
 14 39  1  0
 14 40  1  0
 15 16  1  0
 15 25  1  0
 16 17  1  0
 16 41  1  0
 17 18  2  0
 17 19  1  0
 19 20  1  1
 19 24  1  0
 19 21  1  0
 21 22  1  0
 21 42  1  6
 21 43  1  0
 22 23  1  0
 22 44  1  6
 22 45  1  0
 23 24  1  0
 23 46  1  6
 23 47  1  0
 25 48  1  0
M  END
$$$$
