ZINC000028207332
     RDKit          3D

 46 46  0  0  1  0  0  0  0  0999 V2000
   -0.0187    1.5258    0.0104 C   0  0  1  0  0  0  0  0  0  0  0  0
    0.0021   -0.0041    0.0020 C   0  0  1  0  0  0  0  0  0  0  0  0
    0.7182   -0.4975   -1.2568 C   0  0  1  0  0  0  0  0  0  0  0  0
    0.7390   -2.0273   -1.2652 C   0  0  1  0  0  0  0  0  0  0  0  0
   -0.2789   -2.4050   -1.1679 H   0  0  0  0  0  0  0  0  0  0  0  0
    1.3429   -2.5219   -2.5810 C   0  0  1  0  0  0  0  0  0  0  0  0
    1.5485   -2.5109   -0.1440 N   0  0  0  0  0  0  0  0  0  0  0  0
    1.3281   -3.7388    0.3660 C   0  0  0  0  0  0  0  0  0  0  0  0
    0.4596   -4.4434   -0.1031 O   0  0  0  0  0  0  0  0  0  0  0  0
    2.1609   -4.2362    1.5193 C   0  0  1  0  0  0  0  0  0  0  0  0
    1.7399   -5.5540    1.8774 O   0  0  0  0  0  0  0  0  0  0  0  0
    2.3939   -6.1521    2.9076 C   0  0  0  0  0  0  0  0  0  0  0  0
    3.4160   -5.4822    3.5642 C   0  0  0  0  0  0  0  0  0  0  0  0
    4.0790   -6.0921    4.6115 C   0  0  0  0  0  0  0  0  0  0  0  0
    3.7251   -7.3695    5.0051 C   0  0  0  0  0  0  0  0  0  0  0  0
    4.5731   -8.1449    6.3408 S   0  0  1  0  0  0  0  0  0  0  0  0
    4.4118   -9.5451    6.1597 O   0  0  0  0  0  0  0  0  0  0  0  0
    5.8432   -7.5140    6.4300 O   0  0  0  0  0  0  0  0  0  0  0  0
    3.7593   -7.7563    7.7297 N   0  0  0  0  0  0  0  0  0  0  0  0
    2.6727   -8.6153    8.2068 C   0  0  1  0  0  0  0  0  0  0  0  0
    4.1259   -6.5534    8.4813 C   0  0  1  0  0  0  0  0  0  0  0  0
    2.7065   -8.0391    4.3526 C   0  0  0  0  0  0  0  0  0  0  0  0
    2.0369   -7.4315    3.3081 C   0  0  0  0  0  0  0  0  0  0  0  0
    1.0039    1.9031    0.0027 H   0  0  0  0  0  0  0  0  0  0  0  0
   -0.5459    1.8868   -0.8726 H   0  0  0  0  0  0  0  0  0  0  0  0
   -0.5289    1.8773    0.9072 H   0  0  0  0  0  0  0  0  0  0  0  0
    0.5293   -0.3651    0.8851 H   0  0  0  0  0  0  0  0  0  0  0  0
   -1.0205   -0.3814    0.0098 H   0  0  0  0  0  0  0  0  0  0  0  0
    0.1910   -0.1364   -2.1398 H   0  0  0  0  0  0  0  0  0  0  0  0
    1.7408   -0.1202   -1.2645 H   0  0  0  0  0  0  0  0  0  0  0  0
    2.3608   -2.1442   -2.6783 H   0  0  0  0  0  0  0  0  0  0  0  0
    1.3577   -3.6118   -2.5870 H   0  0  0  0  0  0  0  0  0  0  0  0
    0.7406   -2.1622   -3.4152 H   0  0  0  0  0  0  0  0  0  0  0  0
    2.2431   -1.9473    0.2312 H   0  0  0  0  0  0  0  0  0  0  0  0
    3.2108   -4.2570    1.2271 H   0  0  0  0  0  0  0  0  0  0  0  0
    2.0345   -3.5700    2.3727 H   0  0  0  0  0  0  0  0  0  0  0  0
    3.6934   -4.4847    3.2567 H   0  0  0  0  0  0  0  0  0  0  0  0
    4.8748   -5.5710    5.1229 H   0  0  0  0  0  0  0  0  0  0  0  0
    3.0776   -9.3766    8.8736 H   0  0  0  0  0  0  0  0  0  0  0  0
    1.9422   -8.0118    8.7454 H   0  0  0  0  0  0  0  0  0  0  0  0
    2.1900   -9.0968    7.3563 H   0  0  0  0  0  0  0  0  0  0  0  0
    4.9485   -6.0464    7.9768 H   0  0  0  0  0  0  0  0  0  0  0  0
    3.2671   -5.8846    8.5381 H   0  0  0  0  0  0  0  0  0  0  0  0
    4.4350   -6.8342    9.4881 H   0  0  0  0  0  0  0  0  0  0  0  0
    2.4316   -9.0366    4.6621 H   0  0  0  0  0  0  0  0  0  0  0  0
    1.2413   -7.9550    2.7988 H   0  0  0  0  0  0  0  0  0  0  0  0
  1  2  1  0
  1 24  1  6
  1 25  1  0
  1 26  1  0
  2  3  1  0
  2 27  1  1
  2 28  1  0
  3  4  1  0
  3 29  1  6
  3 30  1  0
  4  5  1  1
  4  6  1  0
  4  7  1  0
  6 31  1  6
  6 32  1  0
  6 33  1  0
  7  8  1  0
  7 34  1  0
  8  9  2  0
  8 10  1  0
 10 11  1  0
 10 35  1  6
 10 36  1  0
 11 12  1  0
 12 23  2  0
 12 13  1  0
 13 14  2  0
 13 37  1  0
 14 15  1  0
 14 38  1  0
 15 16  1  0
 15 22  2  0
 16 17  2  0
 16 18  2  0
 16 19  1  1
 19 20  1  0
 19 21  1  0
 20 39  1  1
 20 40  1  0
 20 41  1  0
 21 42  1  6
 21 43  1  0
 21 44  1  0
 22 23  1  0
 22 45  1  0
 23 46  1  0
M  END
$$$$
