ZINC000004935725
     RDKit          3D

 52 54  0  0  1  0  0  0  0  0999 V2000
   -0.0187    1.5258    0.0104 C   0  0  1  0  0  0  0  0  0  0  0  0
    0.0021   -0.0041    0.0020 C   0  0  1  0  0  0  0  0  0  0  0  0
    0.7273   -0.4995   -1.2525 C   0  0  1  0  0  0  0  0  0  0  0  0
    0.8143   -2.0267   -1.2151 C   0  0  1  0  0  0  0  0  0  0  0  0
    1.5556   -2.4491   -0.0207 N   0  0  2  0  0  0  0  0  0  0  0  0
    2.4690   -2.0204   -0.0239 H   0  0  0  0  0  0  0  0  0  0  0  0
    1.7022   -3.9107   -0.0286 C   0  0  1  0  0  0  0  0  0  0  0  0
    2.4765   -4.3522    1.2155 C   0  0  1  0  0  0  0  0  0  0  0  0
    2.6575   -5.8731    1.1863 C   0  0  1  0  0  0  0  0  0  0  0  0
    1.3384   -6.5037    1.0413 N   0  0  0  0  0  0  0  0  0  0  0  0
    0.8354   -7.6634    2.1110 S   0  0  1  0  0  0  0  0  0  0  0  0
   -0.1465   -8.4354    1.4334 O   0  0  0  0  0  0  0  0  0  0  0  0
    2.0118   -8.2252    2.6763 O   0  0  0  0  0  0  0  0  0  0  0  0
   -0.0006   -6.8356    3.4227 C   0  0  0  0  0  0  0  0  0  0  0  0
    0.7062   -6.4052    4.5300 C   0  0  0  0  0  0  0  0  0  0  0  0
    0.0504   -5.7558    5.5591 C   0  0  0  0  0  0  0  0  0  0  0  0
   -1.3122   -5.5363    5.4807 C   0  0  0  0  0  0  0  0  0  0  0  0
   -2.0272   -4.8288    6.6028 C   0  0  1  0  0  0  0  0  0  0  0  0
   -2.0279   -3.4510    6.3599 F   0  0  0  0  0  0  0  0  0  0  0  0
   -3.3460   -5.2895    6.6792 F   0  0  0  0  0  0  0  0  0  0  0  0
   -1.3716   -5.0889    7.8109 F   0  0  0  0  0  0  0  0  0  0  0  0
   -2.0188   -5.9655    4.3728 C   0  0  0  0  0  0  0  0  0  0  0  0
   -1.3623   -6.6115    3.3420 C   0  0  0  0  0  0  0  0  0  0  0  0
    0.4739   -6.0854   -0.0707 C   0  0  1  0  0  0  0  0  0  0  0  0
    0.3174   -4.5621   -0.0275 C   0  0  1  0  0  0  0  0  0  0  0  0
    0.8289   -2.0398    1.1872 C   0  0  1  0  0  0  0  0  0  0  0  0
    0.7425   -0.5130    1.2422 C   0  0  1  0  0  0  0  0  0  0  0  0
    1.0039    1.9031    0.0027 H   0  0  0  0  0  0  0  0  0  0  0  0
   -0.5459    1.8868   -0.8726 H   0  0  0  0  0  0  0  0  0  0  0  0
   -0.5289    1.8773    0.9072 H   0  0  0  0  0  0  0  0  0  0  0  0
   -1.0201   -0.3825    0.0069 H   0  0  0  0  0  0  0  0  0  0  0  0
    0.1750   -0.1880   -2.1391 H   0  0  0  0  0  0  0  0  0  0  0  0
    1.7322   -0.0783   -1.2822 H   0  0  0  0  0  0  0  0  0  0  0  0
   -0.1911   -2.4469   -1.1856 H   0  0  0  0  0  0  0  0  0  0  0  0
    1.3299   -2.3828   -2.1070 H   0  0  0  0  0  0  0  0  0  0  0  0
    2.2465   -4.2162   -0.9222 H   0  0  0  0  0  0  0  0  0  0  0  0
    3.4538   -3.8696    1.2260 H   0  0  0  0  0  0  0  0  0  0  0  0
    1.9208   -4.0690    2.1094 H   0  0  0  0  0  0  0  0  0  0  0  0
    3.2896   -6.1498    0.3425 H   0  0  0  0  0  0  0  0  0  0  0  0
    3.1204   -6.2039    2.1161 H   0  0  0  0  0  0  0  0  0  0  0  0
    1.7708   -6.5766    4.5912 H   0  0  0  0  0  0  0  0  0  0  0  0
    0.6025   -5.4201    6.4245 H   0  0  0  0  0  0  0  0  0  0  0  0
   -3.0832   -5.7937    4.3114 H   0  0  0  0  0  0  0  0  0  0  0  0
   -1.9143   -6.9468    2.4764 H   0  0  0  0  0  0  0  0  0  0  0  0
    0.9279   -6.3794   -1.0170 H   0  0  0  0  0  0  0  0  0  0  0  0
   -0.5040   -6.5562    0.0297 H   0  0  0  0  0  0  0  0  0  0  0  0
   -0.2180   -4.2770    0.8782 H   0  0  0  0  0  0  0  0  0  0  0  0
   -0.2421   -4.2289   -0.9016 H   0  0  0  0  0  0  0  0  0  0  0  0
   -0.1768   -2.4596    1.1654 H   0  0  0  0  0  0  0  0  0  0  0  0
    1.3553   -2.4054    2.0688 H   0  0  0  0  0  0  0  0  0  0  0  0
    1.7477   -0.0921    1.2642 H   0  0  0  0  0  0  0  0  0  0  0  0
    0.2010   -0.2112    2.1387 H   0  0  0  0  0  0  0  0  0  0  0  0
  1  2  1  0
  1 28  1  6
  1 29  1  0
  1 30  1  0
  2 27  1  0
  2  3  1  0
  2 31  1  6
  3  4  1  0
  3 32  1  6
  3 33  1  0
  4  5  1  0
  4 34  1  1
  4 35  1  0
  5  6  1  1
  5  7  1  0
  5 26  1  0
  7 25  1  0
  7  8  1  0
  7 36  1  6
  8  9  1  0
  8 37  1  1
  8 38  1  0
  9 10  1  0
  9 39  1  6
  9 40  1  0
 11 10  1  6
 10 24  1  0
 11 12  2  0
 11 13  2  0
 11 14  1  0
 14 23  2  0
 14 15  1  0
 15 16  2  0
 15 41  1  0
 16 17  1  0
 16 42  1  0
 17 18  1  0
 17 22  2  0
 18 19  1  6
 18 20  1  0
 18 21  1  0
 22 23  1  0
 22 43  1  0
 23 44  1  0
 24 25  1  0
 24 45  1  6
 24 46  1  0
 25 47  1  1
 25 48  1  0
 26 27  1  0
 26 49  1  6
 26 50  1  0
 27 51  1  1
 27 52  1  0
M  CHG  1   5   1
M  END
$$$$
