ZINC000071871298
     RDKit          3D

 45 46  0  0  1  0  0  0  0  0999 V2000
    1.9583    1.3845   -0.1785 C   0  0  1  0  0  0  0  0  0  0  0  0
    1.9708   -0.1185   -0.4642 C   0  0  2  0  0  0  0  0  0  0  0  0
    1.9847   -0.6672    0.4776 H   0  0  0  0  0  0  0  0  0  0  0  0
    3.1342   -0.4491   -1.2252 O   0  0  0  0  0  0  0  0  0  0  0  0
    0.7182   -0.4975   -1.2568 C   0  0  1  0  0  0  0  0  0  0  0  0
    0.6760   -1.9546   -1.4387 N   0  0  0  0  0  0  0  0  0  0  0  0
    0.9225   -2.6510   -0.1689 C   0  0  1  0  0  0  0  0  0  0  0  0
    0.6920   -4.1537   -0.3612 C   0  0  1  0  0  0  0  0  0  0  0  0
    1.5142   -4.6116   -1.4915 N   0  0  0  0  0  0  0  0  0  0  0  0
    2.3289   -5.6780   -1.3670 C   0  0  0  0  0  0  0  0  0  0  0  0
    2.3911   -6.2737   -0.3124 O   0  0  0  0  0  0  0  0  0  0  0  0
    3.1627   -6.1301   -2.5381 C   0  0  1  0  0  0  0  0  0  0  0  0
    3.9363   -7.2705   -2.1600 O   0  0  0  0  0  0  0  0  0  0  0  0
    4.7491   -7.8065   -3.1081 C   0  0  0  0  0  0  0  0  0  0  0  0
    4.8053   -7.2429   -4.3745 C   0  0  0  0  0  0  0  0  0  0  0  0
    5.6327   -7.7893   -5.3364 C   0  0  0  0  0  0  0  0  0  0  0  0
    6.4041   -8.8974   -5.0380 C   0  0  0  0  0  0  0  0  0  0  0  0
    7.3054   -9.4917   -6.0893 C   0  0  1  0  0  0  0  0  0  0  0  0
    8.5649   -8.8867   -6.0200 F   0  0  0  0  0  0  0  0  0  0  0  0
    7.4359  -10.8670   -5.8684 F   0  0  0  0  0  0  0  0  0  0  0  0
    6.7522   -9.2732   -7.3556 F   0  0  0  0  0  0  0  0  0  0  0  0
    6.3502   -9.4607   -3.7764 C   0  0  0  0  0  0  0  0  0  0  0  0
    5.5283   -8.9148   -2.8095 C   0  0  0  0  0  0  0  0  0  0  0  0
    1.4233   -3.8752   -2.7615 C   0  0  1  0  0  0  0  0  0  0  0  0
    1.6251   -2.3835   -2.4747 C   0  0  1  0  0  0  0  0  0  0  0  0
    1.9445    1.9332   -1.1203 H   0  0  0  0  0  0  0  0  0  0  0  0
    1.0709    1.6367    0.4020 H   0  0  0  0  0  0  0  0  0  0  0  0
    2.8507    1.6545    0.3861 H   0  0  0  0  0  0  0  0  0  0  0  0
    3.1883    0.0038   -2.0779 H   0  0  0  0  0  0  0  0  0  0  0  0
   -0.1684   -0.1735   -0.7118 H   0  0  0  0  0  0  0  0  0  0  0  0
    0.7438   -0.0102   -2.2315 H   0  0  0  0  0  0  0  0  0  0  0  0
    1.9514   -2.4783    0.1468 H   0  0  0  0  0  0  0  0  0  0  0  0
    0.2398   -2.2727    0.5919 H   0  0  0  0  0  0  0  0  0  0  0  0
    0.9833   -4.6875    0.5434 H   0  0  0  0  0  0  0  0  0  0  0  0
   -0.3606   -4.3381   -0.5758 H   0  0  0  0  0  0  0  0  0  0  0  0
    2.5088   -6.3939   -3.3693 H   0  0  0  0  0  0  0  0  0  0  0  0
    3.8295   -5.3233   -2.8423 H   0  0  0  0  0  0  0  0  0  0  0  0
    4.2025   -6.3778   -4.6083 H   0  0  0  0  0  0  0  0  0  0  0  0
    5.6768   -7.3509   -6.3224 H   0  0  0  0  0  0  0  0  0  0  0  0
    6.9539  -10.3260   -3.5457 H   0  0  0  0  0  0  0  0  0  0  0  0
    5.4866   -9.3552   -1.8242 H   0  0  0  0  0  0  0  0  0  0  0  0
    2.1981   -4.2250   -3.4437 H   0  0  0  0  0  0  0  0  0  0  0  0
    0.4410   -4.0329   -3.2067 H   0  0  0  0  0  0  0  0  0  0  0  0
    1.4518   -1.8112   -3.3860 H   0  0  0  0  0  0  0  0  0  0  0  0
    2.6442   -2.2145   -2.1268 H   0  0  0  0  0  0  0  0  0  0  0  0
  1  2  1  0
  1 26  1  6
  1 27  1  0
  1 28  1  0
  2  3  1  1
  2  4  1  0
  2  5  1  0
  4 29  1  0
  5  6  1  0
  5 30  1  1
  5 31  1  0
  6 25  1  0
  6  7  1  0
  7  8  1  0
  7 32  1  1
  7 33  1  0
  8  9  1  0
  8 34  1  1
  8 35  1  0
  9 10  1  0
  9 24  1  0
 10 11  2  0
 10 12  1  0
 12 13  1  0
 12 36  1  6
 12 37  1  0
 13 14  1  0
 14 23  2  0
 14 15  1  0
 15 16  2  0
 15 38  1  0
 16 17  1  0
 16 39  1  0
 17 18  1  0
 17 22  2  0
 18 19  1  6
 18 20  1  0
 18 21  1  0
 22 23  1  0
 22 40  1  0
 23 41  1  0
 24 25  1  0
 24 42  1  6
 24 43  1  0
 25 44  1  6
 25 45  1  0
M  END
$$$$
