ZINC000012748038
     RDKit          3D

 47 49  0  0  1  0  0  0  0  0999 V2000
    0.0913    0.2584   -0.5129 O   0  0  0  0  0  0  0  0  0  0  0  0
   -0.0806    1.3338    0.0209 C   0  0  0  0  0  0  0  0  0  0  0  0
    0.9419    1.9436    0.6526 N   0  0  0  0  0  0  0  0  0  0  0  0
    2.2609    1.3075    0.6945 C   0  0  1  0  0  0  0  0  0  0  0  0
    3.2193    2.1879    1.4544 C   0  0  0  0  0  0  0  0  0  0  0  0
    3.9539    3.1489    0.7853 C   0  0  0  0  0  0  0  0  0  0  0  0
    4.8330    3.9565    1.4824 C   0  0  0  0  0  0  0  0  0  0  0  0
    4.9771    3.8034    2.8486 C   0  0  0  0  0  0  0  0  0  0  0  0
    5.9358    4.6835    3.6085 C   0  0  1  0  0  0  0  0  0  0  0  0
    5.2684    5.8334    4.0437 F   0  0  0  0  0  0  0  0  0  0  0  0
    6.4326    3.9858    4.7147 F   0  0  0  0  0  0  0  0  0  0  0  0
    6.9966    5.0483    2.7724 F   0  0  0  0  0  0  0  0  0  0  0  0
    4.2415    2.8433    3.5180 C   0  0  0  0  0  0  0  0  0  0  0  0
    3.3596    2.0383    2.8215 C   0  0  0  0  0  0  0  0  0  0  0  0
   -1.4359    1.9910   -0.0275 C   0  0  1  0  0  0  0  0  0  0  0  0
   -1.5942    2.5806    0.8755 H   0  0  0  0  0  0  0  0  0  0  0  0
   -1.5346    2.8992   -1.2713 C   0  0  1  0  0  0  0  0  0  0  0  0
   -2.2649    1.9984   -2.3022 C   0  0  1  0  0  0  0  0  0  0  0  0
   -3.2404    1.2116   -1.3918 C   0  0  1  0  0  0  0  0  0  0  0  0
   -2.4842    0.9670   -0.1464 N   0  0  0  0  0  0  0  0  0  0  0  0
   -2.7688   -0.2581    0.9308 S   0  0  1  0  0  0  0  0  0  0  0  0
   -3.3894   -1.3034    0.1949 O   0  0  0  0  0  0  0  0  0  0  0  0
   -1.5656   -0.4335    1.6662 O   0  0  0  0  0  0  0  0  0  0  0  0
   -3.9724    0.3252    2.0779 C   0  0  0  0  0  0  0  0  0  0  0  0
   -3.5740    1.0253    3.2014 C   0  0  0  0  0  0  0  0  0  0  0  0
   -4.5176    1.4831    4.1015 C   0  0  0  0  0  0  0  0  0  0  0  0
   -5.8612    1.2406    3.8780 C   0  0  0  0  0  0  0  0  0  0  0  0
   -7.0471    1.8158    5.0079 Cl  0  0  0  0  0  0  0  0  0  0  0  0
   -6.2594    0.5399    2.7535 C   0  0  0  0  0  0  0  0  0  0  0  0
   -5.3153    0.0875    1.8511 C   0  0  0  0  0  0  0  0  0  0  0  0
    0.8044    2.8037    1.0796 H   0  0  0  0  0  0  0  0  0  0  0  0
    2.1826    0.3411    1.1924 H   0  0  0  0  0  0  0  0  0  0  0  0
    2.6275    1.1639   -0.3219 H   0  0  0  0  0  0  0  0  0  0  0  0
    3.8412    3.2686   -0.2821 H   0  0  0  0  0  0  0  0  0  0  0  0
    5.4074    4.7068    0.9595 H   0  0  0  0  0  0  0  0  0  0  0  0
    4.3539    2.7239    4.5854 H   0  0  0  0  0  0  0  0  0  0  0  0
    2.7849    1.2882    3.3444 H   0  0  0  0  0  0  0  0  0  0  0  0
   -2.1232    3.7901   -1.0525 H   0  0  0  0  0  0  0  0  0  0  0  0
   -0.5419    3.1701   -1.6308 H   0  0  0  0  0  0  0  0  0  0  0  0
   -2.8091    2.5999   -3.0303 H   0  0  0  0  0  0  0  0  0  0  0  0
   -1.5651    1.3259   -2.7983 H   0  0  0  0  0  0  0  0  0  0  0  0
   -4.1290    1.8075   -1.1835 H   0  0  0  0  0  0  0  0  0  0  0  0
   -3.5173    0.2668   -1.8595 H   0  0  0  0  0  0  0  0  0  0  0  0
   -2.5250    1.2142    3.3759 H   0  0  0  0  0  0  0  0  0  0  0  0
   -4.2061    2.0297    4.9793 H   0  0  0  0  0  0  0  0  0  0  0  0
   -7.3082    0.3500    2.5786 H   0  0  0  0  0  0  0  0  0  0  0  0
   -5.6260   -0.4592    0.9731 H   0  0  0  0  0  0  0  0  0  0  0  0
  1  2  2  0
  2  3  1  0
  2 15  1  0
  3  4  1  0
  3 31  1  0
  4  5  1  0
  4 32  1  1
  4 33  1  0
  5 14  2  0
  5  6  1  0
  6  7  2  0
  6 34  1  0
  7  8  1  0
  7 35  1  0
  8  9  1  0
  8 13  2  0
  9 10  1  1
  9 11  1  0
  9 12  1  0
 13 14  1  0
 13 36  1  0
 14 37  1  0
 15 16  1  1
 15 20  1  0
 15 17  1  0
 17 18  1  0
 17 38  1  1
 17 39  1  0
 18 19  1  0
 18 40  1  6
 18 41  1  0
 19 20  1  0
 19 42  1  1
 19 43  1  0
 21 20  1  6
 21 22  2  0
 21 23  2  0
 21 24  1  0
 24 30  2  0
 24 25  1  0
 25 26  2  0
 25 44  1  0
 26 27  1  0
 26 45  1  0
 27 28  1  0
 27 29  2  0
 29 30  1  0
 29 46  1  0
 30 47  1  0
M  END
$$$$
