ZINC000048142393
     RDKit          3D

 42 43  0  0  1  0  0  0  0  0999 V2000
   -0.0199    1.1989   -0.1326 C   0  0  1  0  0  0  0  0  0  0  0  0
   -0.0035   -0.3053    0.1463 C   0  0  1  0  0  0  0  0  0  0  0  0
    0.5037   -0.8206   -0.6694 H   0  0  0  0  0  0  0  0  0  0  0  0
    0.7268   -0.5688    1.4379 C   0  0  0  0  0  0  0  0  0  0  0  0
    0.1020   -0.7669    2.4583 O   0  0  0  0  0  0  0  0  0  0  0  0
    2.0743   -0.5842    1.4592 N   0  0  0  0  0  0  0  0  0  0  0  0
    2.8446   -0.3397    0.2316 C   0  0  1  0  0  0  0  0  0  0  0  0
    3.8165    0.8192    0.4856 C   0  0  1  0  0  0  0  0  0  0  0  0
    4.5420    0.5581    1.7368 N   0  0  0  0  0  0  0  0  0  0  0  0
    5.9318    0.5431    1.7588 C   0  0  0  0  0  0  0  0  0  0  0  0
    6.6436    0.9953    0.6527 C   0  0  0  0  0  0  0  0  0  0  0  0
    8.0264    0.9752    0.6883 C   0  0  0  0  0  0  0  0  0  0  0  0
    8.6529    0.5018    1.8333 C   0  0  0  0  0  0  0  0  0  0  0  0
   10.1571    0.4621    1.9169 C   0  0  1  0  0  0  0  0  0  0  0  0
   10.6268    1.6696    2.4446 F   0  0  0  0  0  0  0  0  0  0  0  0
   10.5504   -0.5937    2.7462 F   0  0  0  0  0  0  0  0  0  0  0  0
   10.6903    0.2736    0.6373 F   0  0  0  0  0  0  0  0  0  0  0  0
    7.8839    0.0682    2.8949 C   0  0  0  0  0  0  0  0  0  0  0  0
    6.5663    0.1035    2.8349 N   0  0  0  0  0  0  0  0  0  0  0  0
    3.7717    0.3136    2.9643 C   0  0  1  0  0  0  0  0  0  0  0  0
    2.7998   -0.8398    2.7114 C   0  0  1  0  0  0  0  0  0  0  0  0
   -1.7070   -0.9142    0.2798 S   0  0  1  0  0  0  0  0  0  0  0  0
   -2.3819   -0.5003   -1.3523 C   0  0  1  0  0  0  0  0  0  0  0  0
   -1.6732   -2.3288    0.4102 O   0  0  0  0  0  0  0  0  0  0  0  0
   -2.3879   -0.1431    1.2601 O   0  0  0  0  0  0  0  0  0  0  0  0
    1.0037    1.5648   -0.2128 H   0  0  0  0  0  0  0  0  0  0  0  0
   -0.5481    1.3895   -1.0668 H   0  0  0  0  0  0  0  0  0  0  0  0
   -0.5271    1.7142    0.6832 H   0  0  0  0  0  0  0  0  0  0  0  0
    3.4053   -1.2361   -0.0330 H   0  0  0  0  0  0  0  0  0  0  0  0
    2.1659   -0.0768   -0.5798 H   0  0  0  0  0  0  0  0  0  0  0  0
    4.5248    0.8902   -0.3399 H   0  0  0  0  0  0  0  0  0  0  0  0
    3.2589    1.7516    0.5738 H   0  0  0  0  0  0  0  0  0  0  0  0
    6.1238    1.3568   -0.2223 H   0  0  0  0  0  0  0  0  0  0  0  0
    8.6056    1.3197   -0.1556 H   0  0  0  0  0  0  0  0  0  0  0  0
    8.3671   -0.3008    3.7875 H   0  0  0  0  0  0  0  0  0  0  0  0
    4.4504    0.0507    3.7757 H   0  0  0  0  0  0  0  0  0  0  0  0
    3.2110    1.2100    3.2290 H   0  0  0  0  0  0  0  0  0  0  0  0
    2.0923   -0.9097    3.5376 H   0  0  0  0  0  0  0  0  0  0  0  0
    3.3553   -1.7734    2.6222 H   0  0  0  0  0  0  0  0  0  0  0  0
   -1.8048   -1.0098   -2.1240 H   0  0  0  0  0  0  0  0  0  0  0  0
   -3.4227   -0.8194   -1.4067 H   0  0  0  0  0  0  0  0  0  0  0  0
   -2.3237    0.5771   -1.5069 H   0  0  0  0  0  0  0  0  0  0  0  0
  1  2  1  0
  1 26  1  6
  1 27  1  0
  1 28  1  0
  2  3  1  6
  2  4  1  0
 22  2  1  6
  4  5  2  0
  4  6  1  0
  6 21  1  0
  6  7  1  0
  7  8  1  0
  7 29  1  6
  7 30  1  0
  8  9  1  0
  8 31  1  6
  8 32  1  0
  9 10  1  0
  9 20  1  0
 10 19  2  0
 10 11  1  0
 11 12  2  0
 11 33  1  0
 12 13  1  0
 12 34  1  0
 13 14  1  0
 13 18  2  0
 14 15  1  1
 14 16  1  0
 14 17  1  0
 18 19  1  0
 18 35  1  0
 20 21  1  0
 20 36  1  1
 20 37  1  0
 21 38  1  1
 21 39  1  0
 22 23  1  0
 22 24  2  0
 22 25  2  0
 23 40  1  6
 23 41  1  0
 23 42  1  0
M  END
$$$$
