ZINC000028648053
     RDKit          3D

 55 57  0  0  0  0  0  0  0  0999 V2000
   -0.0647    1.5417    0.0237 C   0  0  1  0  0  0  0  0  0  0  0  0
   -0.0456    0.0118    0.0196 C   0  0  1  0  0  0  0  0  0  0  0  0
    0.6479   -0.4647   -1.1796 N   0  0  0  0  0  0  0  0  0  0  0  0
    2.1078   -0.5865   -1.1818 C   0  0  1  0  0  0  0  0  0  0  0  0
    2.5076   -1.9401   -0.5912 C   0  0  1  0  0  0  0  0  0  0  0  0
   -0.2184   -0.8658   -2.5327 S   0  0  1  0  0  0  0  0  0  0  0  0
    0.5898   -1.7700   -3.2733 O   0  0  0  0  0  0  0  0  0  0  0  0
   -1.5314   -1.1807   -2.0899 O   0  0  0  0  0  0  0  0  0  0  0  0
   -0.3600    0.5919   -3.5124 C   0  0  0  0  0  0  0  0  0  0  0  0
   -1.4286    1.4489   -3.3260 C   0  0  0  0  0  0  0  0  0  0  0  0
   -1.5397    2.5924   -4.0946 C   0  0  0  0  0  0  0  0  0  0  0  0
   -0.5820    2.8793   -5.0493 C   0  0  0  0  0  0  0  0  0  0  0  0
   -0.7033    4.1258   -5.8875 C   0  0  1  0  0  0  0  0  0  0  0  0
    0.0148    5.2822   -5.1889 C   0  0  1  0  0  0  0  0  0  0  0  0
   -0.1066    6.5286   -6.0271 C   0  0  0  0  0  0  0  0  0  0  0  0
   -0.7083    6.4954   -7.0797 O   0  0  0  0  0  0  0  0  0  0  0  0
    0.4534    7.6803   -5.6071 N   0  0  0  0  0  0  0  0  0  0  0  0
    0.4246    8.8141   -6.4297 C   0  0  0  0  0  0  0  0  0  0  0  0
    1.4977    9.6943   -6.4367 C   0  0  0  0  0  0  0  0  0  0  0  0
    1.4689   10.8138   -7.2462 C   0  0  0  0  0  0  0  0  0  0  0  0
    0.3691   11.0614   -8.0537 C   0  0  0  0  0  0  0  0  0  0  0  0
    0.3549   12.1745   -8.8385 O   0  0  0  0  0  0  0  0  0  0  0  0
   -0.5970   12.1961   -9.9077 C   0  0  1  0  0  0  0  0  0  0  0  0
   -1.9508   11.7297   -9.3557 C   0  0  1  0  0  0  0  0  0  0  0  0
   -1.7919   10.4032   -8.8409 O   0  0  0  0  0  0  0  0  0  0  0  0
   -0.7058   10.1795   -8.0515 C   0  0  0  0  0  0  0  0  0  0  0  0
   -0.6747    9.0546   -7.2423 C   0  0  0  0  0  0  0  0  0  0  0  0
    0.4873    2.0231   -5.2347 C   0  0  0  0  0  0  0  0  0  0  0  0
    0.6004    0.8815   -4.4635 C   0  0  0  0  0  0  0  0  0  0  0  0
    0.9583    1.9178    0.0221 H   0  0  0  0  0  0  0  0  0  0  0  0
   -0.5853    1.9009   -0.8639 H   0  0  0  0  0  0  0  0  0  0  0  0
   -0.5807    1.8962    0.9160 H   0  0  0  0  0  0  0  0  0  0  0  0
    0.4750   -0.3475    0.9073 H   0  0  0  0  0  0  0  0  0  0  0  0
   -1.0687   -0.3643    0.0213 H   0  0  0  0  0  0  0  0  0  0  0  0
    2.4770   -0.5130   -2.2047 H   0  0  0  0  0  0  0  0  0  0  0  0
    2.5400    0.2139   -0.5812 H   0  0  0  0  0  0  0  0  0  0  0  0
    3.5938   -2.0307   -0.5928 H   0  0  0  0  0  0  0  0  0  0  0  0
    2.1384   -2.0135    0.4317 H   0  0  0  0  0  0  0  0  0  0  0  0
    2.0754   -2.7404   -1.1918 H   0  0  0  0  0  0  0  0  0  0  0  0
   -2.1768    1.2247   -2.5801 H   0  0  0  0  0  0  0  0  0  0  0  0
   -2.3749    3.2616   -3.9494 H   0  0  0  0  0  0  0  0  0  0  0  0
   -0.2497    3.9530   -6.8634 H   0  0  0  0  0  0  0  0  0  0  0  0
   -1.7564    4.3764   -6.0156 H   0  0  0  0  0  0  0  0  0  0  0  0
   -0.4389    5.4550   -4.2129 H   0  0  0  0  0  0  0  0  0  0  0  0
    1.0678    5.0316   -5.0608 H   0  0  0  0  0  0  0  0  0  0  0  0
    0.8764    7.7243   -4.7353 H   0  0  0  0  0  0  0  0  0  0  0  0
    2.3557    9.5044   -5.8087 H   0  0  0  0  0  0  0  0  0  0  0  0
    2.3047   11.4977   -7.2497 H   0  0  0  0  0  0  0  0  0  0  0  0
   -0.6886   13.2097  -10.2978 H   0  0  0  0  0  0  0  0  0  0  0  0
   -0.2727   11.5238  -10.7021 H   0  0  0  0  0  0  0  0  0  0  0  0
   -2.2720   12.3980   -8.5568 H   0  0  0  0  0  0  0  0  0  0  0  0
   -2.6925   11.7276  -10.1545 H   0  0  0  0  0  0  0  0  0  0  0  0
   -1.5077    8.3673   -7.2411 H   0  0  0  0  0  0  0  0  0  0  0  0
    1.2357    2.2474   -5.9804 H   0  0  0  0  0  0  0  0  0  0  0  0
    1.4358    0.2125   -4.6084 H   0  0  0  0  0  0  0  0  0  0  0  0
  1  2  1  0
  1 30  1  1
  1 31  1  0
  1 32  1  0
  2  3  1  0
  2 33  1  1
  2 34  1  0
  3  4  1  0
  6  3  1  1
  4  5  1  0
  4 35  1  6
  4 36  1  0
  5 37  1  1
  5 38  1  0
  5 39  1  0
  6  7  2  0
  6  8  2  0
  6  9  1  0
  9 29  2  0
  9 10  1  0
 10 11  2  0
 10 40  1  0
 11 12  1  0
 11 41  1  0
 12 13  1  0
 12 28  2  0
 13 14  1  0
 13 42  1  6
 13 43  1  0
 14 15  1  0
 14 44  1  1
 14 45  1  0
 15 16  2  0
 15 17  1  0
 17 18  1  0
 17 46  1  0
 18 27  2  0
 18 19  1  0
 19 20  2  0
 19 47  1  0
 20 21  1  0
 20 48  1  0
 21 26  2  0
 21 22  1  0
 22 23  1  0
 23 24  1  0
 23 49  1  6
 23 50  1  0
 24 25  1  0
 24 51  1  1
 24 52  1  0
 25 26  1  0
 26 27  1  0
 27 53  1  0
 28 29  1  0
 28 54  1  0
 29 55  1  0
M  END
$$$$
