ZINC000072346040
     RDKit          3D

 49 51  0  0  1  0  0  0  0  0999 V2000
   -0.0173    1.4248    0.0099 C   0  0  1  0  0  0  0  0  0  0  0  0
    0.0021   -0.0041    0.0020 O   0  0  0  0  0  0  0  0  0  0  0  0
    0.6518   -0.5703   -1.1379 C   0  0  1  0  0  0  0  0  0  0  0  0
    0.6137   -2.0738   -1.0425 C   0  0  0  0  0  0  0  0  0  0  0  0
    0.0824   -2.6078   -0.0920 O   0  0  0  0  0  0  0  0  0  0  0  0
    1.1699   -2.8249   -2.0135 N   0  0  0  0  0  0  0  0  0  0  0  0
    1.8224   -2.1924   -3.1680 C   0  0  1  0  0  0  0  0  0  0  0  0
    3.2429   -2.7510   -3.2987 C   0  0  1  0  0  0  0  0  0  0  0  0
    3.1816   -4.2784   -3.3703 C   0  0  1  0  0  0  0  0  0  0  0  0
    2.5635   -4.8268   -2.0821 C   0  0  2  0  0  0  0  0  0  0  0  0
    3.1600   -4.5070   -1.2276 H   0  0  0  0  0  0  0  0  0  0  0  0
    2.5339   -6.3324   -2.1396 C   0  0  0  0  0  0  0  0  0  0  0  0
    1.8712   -6.9534   -3.0991 N   0  0  0  0  0  0  0  0  0  0  0  0
    1.8404   -8.2772   -3.1574 C   0  0  0  0  0  0  0  0  0  0  0  0
    1.1354   -8.8890   -4.1785 N   0  0  0  0  0  0  0  0  0  0  0  0
    2.4664   -9.0312   -2.2653 N   0  0  0  0  0  0  0  0  0  0  0  0
    3.1504   -8.4843   -1.2758 C   0  0  0  0  0  0  0  0  0  0  0  0
    3.2119   -7.0917   -1.1822 C   0  0  0  0  0  0  0  0  0  0  0  0
    3.9690   -6.4356   -0.0878 C   0  0  0  0  0  0  0  0  0  0  0  0
    4.8840   -5.4256   -0.3783 C   0  0  0  0  0  0  0  0  0  0  0  0
    5.5852   -4.8185    0.6437 C   0  0  0  0  0  0  0  0  0  0  0  0
    5.3813   -5.2111    1.9543 C   0  0  0  0  0  0  0  0  0  0  0  0
    6.1499   -4.5443    3.0659 C   0  0  1  0  0  0  0  0  0  0  0  0
    5.4316   -3.4375    3.5309 F   0  0  0  0  0  0  0  0  0  0  0  0
    6.3370   -5.4525    4.1135 F   0  0  0  0  0  0  0  0  0  0  0  0
    7.3947   -4.1240    2.5853 F   0  0  0  0  0  0  0  0  0  0  0  0
    4.4742   -6.2131    2.2484 C   0  0  0  0  0  0  0  0  0  0  0  0
    3.7634   -6.8232    1.2348 C   0  0  0  0  0  0  0  0  0  0  0  0
    1.1407   -4.2918   -1.9346 C   0  0  1  0  0  0  0  0  0  0  0  0
    1.0053    1.8021    0.0021 H   0  0  0  0  0  0  0  0  0  0  0  0
   -0.5445    1.7859   -0.8732 H   0  0  0  0  0  0  0  0  0  0  0  0
   -0.5275    1.7763    0.9067 H   0  0  0  0  0  0  0  0  0  0  0  0
    0.1385   -0.2506   -2.0447 H   0  0  0  0  0  0  0  0  0  0  0  0
    1.6883   -0.2344   -1.1694 H   0  0  0  0  0  0  0  0  0  0  0  0
    1.2578   -2.4142   -4.0736 H   0  0  0  0  0  0  0  0  0  0  0  0
    1.8663   -1.1138   -3.0173 H   0  0  0  0  0  0  0  0  0  0  0  0
    3.7045   -2.3624   -4.2065 H   0  0  0  0  0  0  0  0  0  0  0  0
    3.8330   -2.4507   -2.4328 H   0  0  0  0  0  0  0  0  0  0  0  0
    2.5709   -4.5778   -4.2221 H   0  0  0  0  0  0  0  0  0  0  0  0
    4.1891   -4.6772   -3.4881 H   0  0  0  0  0  0  0  0  0  0  0  0
    0.6725   -8.3500   -4.8389 H   0  0  0  0  0  0  0  0  0  0  0  0
    1.1039   -9.8569   -4.2340 H   0  0  0  0  0  0  0  0  0  0  0  0
    3.6582   -9.1048   -0.5523 H   0  0  0  0  0  0  0  0  0  0  0  0
    5.0445   -5.1188   -1.4013 H   0  0  0  0  0  0  0  0  0  0  0  0
    6.2946   -4.0356    0.4197 H   0  0  0  0  0  0  0  0  0  0  0  0
    4.3189   -6.5158    3.2734 H   0  0  0  0  0  0  0  0  0  0  0  0
    3.0554   -7.6055    1.4655 H   0  0  0  0  0  0  0  0  0  0  0  0
    0.7327   -4.5991   -0.9717 H   0  0  0  0  0  0  0  0  0  0  0  0
    0.5180   -4.6828   -2.7392 H   0  0  0  0  0  0  0  0  0  0  0  0
  1  2  1  0
  1 30  1  6
  1 31  1  0
  1 32  1  0
  2  3  1  0
  3  4  1  0
  3 33  1  6
  3 34  1  0
  4  5  2  0
  4  6  1  0
  6 29  1  0
  6  7  1  0
  7  8  1  0
  7 35  1  6
  7 36  1  0
  8  9  1  0
  8 37  1  6
  8 38  1  0
  9 10  1  0
  9 39  1  6
  9 40  1  0
 10 11  1  1
 10 12  1  0
 10 29  1  0
 12 18  2  0
 12 13  1  0
 13 14  2  0
 14 15  1  0
 14 16  1  0
 15 41  1  0
 15 42  1  0
 16 17  2  0
 17 18  1  0
 17 43  1  0
 18 19  1  0
 19 28  2  0
 19 20  1  0
 20 21  2  0
 20 44  1  0
 21 22  1  0
 21 45  1  0
 22 23  1  0
 22 27  2  0
 23 24  1  1
 23 25  1  0
 23 26  1  0
 27 28  1  0
 27 46  1  0
 28 47  1  0
 29 48  1  1
 29 49  1  0
M  END
$$$$
