ZINC000077523565
     RDKit          3D

 46 47  0  0  1  0  0  0  0  0999 V2000
   -0.0184    1.5028    0.0103 C   0  0  1  0  0  0  0  0  0  0  0  0
    0.0021   -0.0041    0.0020 C   0  0  0  0  0  0  0  0  0  0  0  0
    0.0203   -0.6160    1.0489 O   0  0  0  0  0  0  0  0  0  0  0  0
    0.0001   -0.6716   -1.1688 N   0  0  0  0  0  0  0  0  0  0  0  0
    0.0199   -2.1365   -1.1769 C   0  0  2  0  0  0  0  0  0  0  0  0
   -0.5406   -2.5373   -0.3323 H   0  0  0  0  0  0  0  0  0  0  0  0
    1.4735   -2.6720   -1.1831 C   0  0  1  0  0  0  0  0  0  0  0  0
    1.3794   -4.0120   -1.7906 N   0  0  0  0  0  0  0  0  0  0  0  0
    2.4512   -5.2533   -1.5608 S   0  0  1  0  0  0  0  0  0  0  0  0
    2.3236   -6.1076   -2.6892 O   0  0  0  0  0  0  0  0  0  0  0  0
    3.6808   -4.6553   -1.1738 O   0  0  0  0  0  0  0  0  0  0  0  0
    1.8882   -6.1779   -0.1706 C   0  0  0  0  0  0  0  0  0  0  0  0
    2.3130   -5.8414    1.1011 C   0  0  0  0  0  0  0  0  0  0  0  0
    1.8713   -6.5668    2.1919 C   0  0  0  0  0  0  0  0  0  0  0  0
    1.0045   -7.6283    2.0109 C   0  0  0  0  0  0  0  0  0  0  0  0
    0.5234   -8.4194    3.1999 C   0  0  1  0  0  0  0  0  0  0  0  0
   -0.6529   -7.8471    3.6958 F   0  0  0  0  0  0  0  0  0  0  0  0
    0.2718   -9.7395    2.8109 F   0  0  0  0  0  0  0  0  0  0  0  0
    1.5048   -8.4061    4.1969 F   0  0  0  0  0  0  0  0  0  0  0  0
    0.5787   -7.9639    0.7393 C   0  0  0  0  0  0  0  0  0  0  0  0
    1.0174   -7.2361   -0.3510 C   0  0  0  0  0  0  0  0  0  0  0  0
    0.1759   -4.0640   -2.6335 C   0  0  1  0  0  0  0  0  0  0  0  0
   -0.5237   -2.6926   -2.5194 C   0  0  1  0  0  0  0  0  0  0  0  0
   -0.2390   -2.0444   -3.3482 H   0  0  0  0  0  0  0  0  0  0  0  0
   -2.0432   -2.8630   -2.4652 C   0  0  1  0  0  0  0  0  0  0  0  0
   -2.7051   -1.4917   -2.3160 C   0  0  1  0  0  0  0  0  0  0  0  0
   -2.5285   -3.5259   -3.7560 C   0  0  1  0  0  0  0  0  0  0  0  0
    1.0042    1.8801    0.0026 H   0  0  0  0  0  0  0  0  0  0  0  0
   -0.5455    1.8639   -0.8728 H   0  0  0  0  0  0  0  0  0  0  0  0
   -0.5286    1.8543    0.9071 H   0  0  0  0  0  0  0  0  0  0  0  0
   -0.0145   -0.1822   -2.0061 H   0  0  0  0  0  0  0  0  0  0  0  0
    2.1130   -2.0266   -1.7851 H   0  0  0  0  0  0  0  0  0  0  0  0
    1.8559   -2.7432   -0.1648 H   0  0  0  0  0  0  0  0  0  0  0  0
    2.9901   -5.0121    1.2425 H   0  0  0  0  0  0  0  0  0  0  0  0
    2.2037   -6.3044    3.1854 H   0  0  0  0  0  0  0  0  0  0  0  0
   -0.0988   -8.7930    0.5979 H   0  0  0  0  0  0  0  0  0  0  0  0
    0.6847   -7.4983   -1.3445 H   0  0  0  0  0  0  0  0  0  0  0  0
    0.4570   -4.2521   -3.6697 H   0  0  0  0  0  0  0  0  0  0  0  0
   -0.4909   -4.8502   -2.2796 H   0  0  0  0  0  0  0  0  0  0  0  0
   -2.3084   -3.4891   -1.6133 H   0  0  0  0  0  0  0  0  0  0  0  0
   -2.4399   -0.8656   -3.1680 H   0  0  0  0  0  0  0  0  0  0  0  0
   -3.7877   -1.6131   -2.2774 H   0  0  0  0  0  0  0  0  0  0  0  0
   -2.3594   -1.0195   -1.3965 H   0  0  0  0  0  0  0  0  0  0  0  0
   -2.0569   -4.5028   -3.8623 H   0  0  0  0  0  0  0  0  0  0  0  0
   -3.6110   -3.6472   -3.7174 H   0  0  0  0  0  0  0  0  0  0  0  0
   -2.2632   -2.8998   -4.6079 H   0  0  0  0  0  0  0  0  0  0  0  0
  1  2  1  0
  1 28  1  6
  1 29  1  0
  1 30  1  0
  2  3  2  0
  2  4  1  0
  4  5  1  0
  4 31  1  0
  5  6  1  1
  5 23  1  0
  5  7  1  0
  7  8  1  0
  7 32  1  6
  7 33  1  0
  9  8  1  6
  8 22  1  0
  9 10  2  0
  9 11  2  0
  9 12  1  0
 12 21  2  0
 12 13  1  0
 13 14  2  0
 13 34  1  0
 14 15  1  0
 14 35  1  0
 15 16  1  0
 15 20  2  0
 16 17  1  1
 16 18  1  0
 16 19  1  0
 20 21  1  0
 20 36  1  0
 21 37  1  0
 22 23  1  0
 22 38  1  6
 22 39  1  0
 23 24  1  6
 23 25  1  0
 25 26  1  0
 25 27  1  0
 25 40  1  1
 26 41  1  6
 26 42  1  0
 26 43  1  0
 27 44  1  6
 27 45  1  0
 27 46  1  0
M  END
$$$$
