ZINC000001122759
     RDKit          3D

 47 48  0  0  0  0  0  0  0  0999 V2000
   -0.0369    1.5550    0.0174 C   0  0  1  0  0  0  0  0  0  0  0  0
   -0.0086    0.0253    0.0014 C   0  0  1  0  0  0  0  0  0  0  0  0
   -1.4198   -0.5033    0.0122 C   0  0  0  0  0  0  0  0  0  0  0  0
   -2.0544   -0.7522    1.2151 C   0  0  0  0  0  0  0  0  0  0  0  0
   -3.3480   -1.2368    1.2277 C   0  0  0  0  0  0  0  0  0  0  0  0
   -4.0106   -1.4732    0.0320 C   0  0  0  0  0  0  0  0  0  0  0  0
   -5.2833   -1.9495    0.0418 O   0  0  0  0  0  0  0  0  0  0  0  0
   -5.9035   -2.1693   -1.2268 C   0  0  1  0  0  0  0  0  0  0  0  0
   -7.3008   -2.6941   -1.0186 C   0  0  0  0  0  0  0  0  0  0  0  0
   -7.7239   -2.8632    0.1054 O   0  0  0  0  0  0  0  0  0  0  0  0
   -8.0802   -2.9755   -2.0815 N   0  0  0  0  0  0  0  0  0  0  0  0
   -9.3404   -3.5532   -1.8915 C   0  0  0  0  0  0  0  0  0  0  0  0
   -9.8278   -4.4765   -2.8073 C   0  0  0  0  0  0  0  0  0  0  0  0
  -11.0720   -5.0449   -2.6169 C   0  0  0  0  0  0  0  0  0  0  0  0
  -11.8325   -4.6952   -1.5162 C   0  0  0  0  0  0  0  0  0  0  0  0
  -13.4196   -5.4223   -1.2773 S   0  0  1  0  0  0  0  0  0  0  0  0
  -14.1539   -4.5228   -0.4582 O   0  0  0  0  0  0  0  0  0  0  0  0
  -13.8640   -5.8457   -2.5589 O   0  0  0  0  0  0  0  0  0  0  0  0
  -13.1991   -6.7972   -0.3810 N   0  0  0  0  0  0  0  0  0  0  0  0
  -13.2487   -6.7338    1.0818 C   0  0  1  0  0  0  0  0  0  0  0  0
  -12.9545   -8.0769   -1.0509 C   0  0  1  0  0  0  0  0  0  0  0  0
  -11.3498   -3.7766   -0.6023 C   0  0  0  0  0  0  0  0  0  0  0  0
  -10.1039   -3.2088   -0.7839 C   0  0  0  0  0  0  0  0  0  0  0  0
   -3.3718   -1.2222   -1.1737 C   0  0  0  0  0  0  0  0  0  0  0  0
   -2.0799   -0.7331   -1.1808 C   0  0  0  0  0  0  0  0  0  0  0  0
    0.9838    1.9373    0.0096 H   0  0  0  0  0  0  0  0  0  0  0  0
   -0.5675    1.9178   -0.8629 H   0  0  0  0  0  0  0  0  0  0  0  0
   -0.5471    1.8996    0.9169 H   0  0  0  0  0  0  0  0  0  0  0  0
    0.5016   -0.3192   -0.8981 H   0  0  0  0  0  0  0  0  0  0  0  0
    0.5220   -0.3375    0.8817 H   0  0  0  0  0  0  0  0  0  0  0  0
   -1.5381   -0.5681    2.1457 H   0  0  0  0  0  0  0  0  0  0  0  0
   -3.8429   -1.4318    2.1676 H   0  0  0  0  0  0  0  0  0  0  0  0
   -5.9465   -1.2299   -1.7778 H   0  0  0  0  0  0  0  0  0  0  0  0
   -5.3229   -2.8969   -1.7938 H   0  0  0  0  0  0  0  0  0  0  0  0
   -7.7676   -2.7775   -2.9781 H   0  0  0  0  0  0  0  0  0  0  0  0
   -9.2346   -4.7495   -3.6675 H   0  0  0  0  0  0  0  0  0  0  0  0
  -11.4517   -5.7630   -3.3288 H   0  0  0  0  0  0  0  0  0  0  0  0
  -14.2726   -6.8976    1.4180 H   0  0  0  0  0  0  0  0  0  0  0  0
  -12.6011   -7.5037    1.5010 H   0  0  0  0  0  0  0  0  0  0  0  0
  -12.9095   -5.7528    1.4146 H   0  0  0  0  0  0  0  0  0  0  0  0
  -11.8823   -8.2147   -1.1905 H   0  0  0  0  0  0  0  0  0  0  0  0
  -13.3485   -8.8884   -0.4391 H   0  0  0  0  0  0  0  0  0  0  0  0
  -13.4505   -8.0797   -2.0214 H   0  0  0  0  0  0  0  0  0  0  0  0
  -11.9462   -3.5056    0.2564 H   0  0  0  0  0  0  0  0  0  0  0  0
   -9.7275   -2.4914   -0.0697 H   0  0  0  0  0  0  0  0  0  0  0  0
   -3.8854   -1.4057   -2.1058 H   0  0  0  0  0  0  0  0  0  0  0  0
   -1.5823   -0.5371   -2.1192 H   0  0  0  0  0  0  0  0  0  0  0  0
  1  2  1  0
  1 26  1  1
  1 27  1  0
  1 28  1  0
  2  3  1  0
  2 29  1  6
  2 30  1  0
  3 25  2  0
  3  4  1  0
  4  5  2  0
  4 31  1  0
  5  6  1  0
  5 32  1  0
  6  7  1  0
  6 24  2  0
  7  8  1  0
  8  9  1  0
  8 33  1  6
  8 34  1  0
  9 10  2  0
  9 11  1  0
 11 12  1  0
 11 35  1  0
 12 23  2  0
 12 13  1  0
 13 14  2  0
 13 36  1  0
 14 15  1  0
 14 37  1  0
 15 16  1  0
 15 22  2  0
 16 17  2  0
 16 18  2  0
 16 19  1  1
 19 20  1  0
 19 21  1  0
 20 38  1  1
 20 39  1  0
 20 40  1  0
 21 41  1  6
 21 42  1  0
 21 43  1  0
 22 23  1  0
 22 44  1  0
 23 45  1  0
 24 25  1  0
 24 46  1  0
 25 47  1  0
M  END
$$$$
