ZINC000065364964
     RDKit          3D

 33 33  0  0  1  0  0  0  0  0999 V2000
    0.5042    0.9504   -0.3063 C   0  0  1  0  0  0  0  0  0  0  0  0
    0.1466   -0.5362   -0.2507 C   0  0  1  0  0  0  0  0  0  0  0  0
   -0.9089   -0.6653   -0.4901 H   0  0  0  0  0  0  0  0  0  0  0  0
    0.9844   -1.2921   -1.2496 C   0  0  0  0  0  0  0  0  0  0  0  0
    0.6062   -1.3467   -2.5421 N   0  0  0  0  0  0  0  0  0  0  0  0
    1.9989   -1.8513   -0.8905 O   0  0  0  0  0  0  0  0  0  0  0  0
    0.4086   -1.0514    1.0955 N   0  0  0  0  0  0  0  0  0  0  0  0
    1.6991   -0.9936    1.6266 C   0  0  0  0  0  0  0  0  0  0  0  0
    2.2745    0.2348    1.9250 C   0  0  0  0  0  0  0  0  0  0  0  0
    3.5507    0.2884    2.4505 C   0  0  0  0  0  0  0  0  0  0  0  0
    4.2554   -0.8789    2.6795 C   0  0  0  0  0  0  0  0  0  0  0  0
    3.6856   -2.1038    2.3830 C   0  0  0  0  0  0  0  0  0  0  0  0
    4.4574   -3.3735    2.6343 C   0  0  1  0  0  0  0  0  0  0  0  0
    5.7129   -3.0588    3.1652 F   0  0  0  0  0  0  0  0  0  0  0  0
    3.7551   -4.1745    3.5412 F   0  0  0  0  0  0  0  0  0  0  0  0
    4.6208   -4.0661    1.4297 F   0  0  0  0  0  0  0  0  0  0  0  0
    2.4079   -2.1649    1.8628 C   0  0  0  0  0  0  0  0  0  0  0  0
   -0.8255   -1.7025    1.9875 S   0  0  1  0  0  0  0  0  0  0  0  0
   -0.9246   -3.4266    1.4324 C   0  0  1  0  0  0  0  0  0  0  0  0
   -0.3610   -1.6364    3.3288 O   0  0  0  0  0  0  0  0  0  0  0  0
   -1.9763   -0.9786    1.5743 O   0  0  0  0  0  0  0  0  0  0  0  0
    1.5798    1.0704   -0.1773 H   0  0  0  0  0  0  0  0  0  0  0  0
    0.2060    1.3599   -1.2714 H   0  0  0  0  0  0  0  0  0  0  0  0
   -0.0186    1.4798    0.4902 H   0  0  0  0  0  0  0  0  0  0  0  0
   -0.2052   -0.8994   -2.8293 H   0  0  0  0  0  0  0  0  0  0  0  0
    1.1454   -1.8332   -3.1851 H   0  0  0  0  0  0  0  0  0  0  0  0
    1.7247    1.1470    1.7461 H   0  0  0  0  0  0  0  0  0  0  0  0
    3.9989    1.2433    2.6825 H   0  0  0  0  0  0  0  0  0  0  0  0
    5.2531   -0.8342    3.0905 H   0  0  0  0  0  0  0  0  0  0  0  0
    1.9636   -3.1217    1.6315 H   0  0  0  0  0  0  0  0  0  0  0  0
    0.0635   -3.8834    1.4873 H   0  0  0  0  0  0  0  0  0  0  0  0
   -1.6148   -3.9754    2.0731 H   0  0  0  0  0  0  0  0  0  0  0  0
   -1.2822   -3.4569    0.4031 H   0  0  0  0  0  0  0  0  0  0  0  0
  1  2  1  0
  1 22  1  1
  1 23  1  0
  1 24  1  0
  2  3  1  6
  2  4  1  0
  2  7  1  0
  4  5  1  0
  4  6  2  0
  5 25  1  0
  5 26  1  0
  7  8  1  0
 18  7  1  6
  8 17  2  0
  8  9  1  0
  9 10  2  0
  9 27  1  0
 10 11  1  0
 10 28  1  0
 11 12  2  0
 11 29  1  0
 12 13  1  0
 12 17  1  0
 13 14  1  1
 13 15  1  0
 13 16  1  0
 17 30  1  0
 18 19  1  0
 18 20  2  0
 18 21  2  0
 19 31  1  6
 19 32  1  0
 19 33  1  0
M  END
$$$$
