ZINC000012917015
     RDKit          3D

 63 66  0  0  1  0  0  0  0  0999 V2000
    2.0346    3.3288    1.7342 O   0  0  0  0  0  0  0  0  0  0  0  0
    1.5432    3.4477    3.0622 S   0  0  1  0  0  0  0  0  0  0  0  0
    2.1375    2.7897    4.1727 O   0  0  0  0  0  0  0  0  0  0  0  0
    1.5480    5.1682    3.4423 C   0  0  0  0  0  0  0  0  0  0  0  0
    1.4949    6.1012    2.4237 C   0  0  0  0  0  0  0  0  0  0  0  0
    1.4987    7.4510    2.7219 C   0  0  0  0  0  0  0  0  0  0  0  0
    1.5552    7.8678    4.0387 C   0  0  0  0  0  0  0  0  0  0  0  0
    1.5598    9.3393    4.3638 C   0  0  1  0  0  0  0  0  0  0  0  0
    0.2436    9.7857    4.5237 F   0  0  0  0  0  0  0  0  0  0  0  0
    2.2719    9.5528    5.5489 F   0  0  0  0  0  0  0  0  0  0  0  0
    2.1682   10.0454    3.3205 F   0  0  0  0  0  0  0  0  0  0  0  0
    1.6069    6.9347    5.0574 C   0  0  0  0  0  0  0  0  0  0  0  0
    1.5992    5.5849    4.7594 C   0  0  0  0  0  0  0  0  0  0  0  0
   -0.0386    2.9592    3.0210 N   0  0  0  0  0  0  0  0  0  0  0  0
   -0.7095    2.4700    4.2351 C   0  0  1  0  0  0  0  0  0  0  0  0
   -2.0288    3.2313    4.4025 C   0  0  1  0  0  0  0  0  0  0  0  0
   -2.8169    3.1162    3.1681 N   0  0  0  0  0  0  0  0  0  0  0  0
   -4.1596    3.6851    3.3458 C   0  0  1  0  0  0  0  0  0  0  0  0
   -5.0188    2.7187    4.1635 C   0  0  2  0  0  0  0  0  0  0  0  0
   -4.5318    2.5181    5.1179 H   0  0  0  0  0  0  0  0  0  0  0  0
   -5.1767    1.4949    3.4428 O   0  0  0  0  0  0  0  0  0  0  0  0
   -6.3925    3.3442    4.4135 C   0  0  1  0  0  0  0  0  0  0  0  0
   -7.1535    2.4942    5.2739 O   0  0  0  0  0  0  0  0  0  0  0  0
   -8.4949    2.9368    5.4902 C   0  0  1  0  0  0  0  0  0  0  0  0
   -8.5221    4.0262    5.4659 H   0  0  0  0  0  0  0  0  0  0  0  0
   -9.3917    2.3859    4.3833 C   0  0  1  0  0  0  0  0  0  0  0  0
  -10.8504    2.6863    4.7475 C   0  0  1  0  0  0  0  0  0  0  0  0
  -11.2387    1.8143    5.9398 C   0  0  1  0  0  0  0  0  0  0  0  0
  -10.2273    1.9513    7.0476 C   0  0  0  0  0  0  0  0  0  0  0  0
  -10.6034    1.5435    8.3206 C   0  0  0  0  0  0  0  0  0  0  0  0
   -9.7204    1.6381    9.3766 C   0  0  0  0  0  0  0  0  0  0  0  0
   -8.4505    2.1420    9.1664 C   0  0  0  0  0  0  0  0  0  0  0  0
   -8.0758    2.5499    7.9027 C   0  0  0  0  0  0  0  0  0  0  0  0
   -8.9646    2.4581    6.8390 C   0  0  0  0  0  0  0  0  0  0  0  0
   -2.1253    3.7433    2.0339 C   0  0  1  0  0  0  0  0  0  0  0  0
   -0.8117    3.0088    1.7708 C   0  0  1  0  0  0  0  0  0  0  0  0
    1.4508    5.7756    1.3949 H   0  0  0  0  0  0  0  0  0  0  0  0
    1.4579    8.1800    1.9261 H   0  0  0  0  0  0  0  0  0  0  0  0
    1.6506    7.2604    6.0862 H   0  0  0  0  0  0  0  0  0  0  0  0
    1.6397    4.8560    5.5552 H   0  0  0  0  0  0  0  0  0  0  0  0
   -0.9120    1.4035    4.1370 H   0  0  0  0  0  0  0  0  0  0  0  0
   -0.0724    2.6465    5.1018 H   0  0  0  0  0  0  0  0  0  0  0  0
   -2.5911    2.8062    5.2339 H   0  0  0  0  0  0  0  0  0  0  0  0
   -1.8196    4.2819    4.6038 H   0  0  0  0  0  0  0  0  0  0  0  0
   -4.0841    4.6374    3.8706 H   0  0  0  0  0  0  0  0  0  0  0  0
   -4.6191    3.8433    2.3701 H   0  0  0  0  0  0  0  0  0  0  0  0
   -5.6042    1.5980    2.5816 H   0  0  0  0  0  0  0  0  0  0  0  0
   -6.2675    4.3194    4.8841 H   0  0  0  0  0  0  0  0  0  0  0  0
   -6.9157    3.4630    3.4647 H   0  0  0  0  0  0  0  0  0  0  0  0
   -9.1434    2.8660    3.4368 H   0  0  0  0  0  0  0  0  0  0  0  0
   -9.2491    1.3087    4.2976 H   0  0  0  0  0  0  0  0  0  0  0  0
  -10.9532    3.7384    5.0132 H   0  0  0  0  0  0  0  0  0  0  0  0
  -11.4952    2.4567    3.8993 H   0  0  0  0  0  0  0  0  0  0  0  0
  -12.2177    2.1225    6.3068 H   0  0  0  0  0  0  0  0  0  0  0  0
  -11.2860    0.7724    5.6230 H   0  0  0  0  0  0  0  0  0  0  0  0
  -11.5953    1.1495    8.4856 H   0  0  0  0  0  0  0  0  0  0  0  0
  -10.0202    1.3192   10.3639 H   0  0  0  0  0  0  0  0  0  0  0  0
   -7.7542    2.2165    9.9886 H   0  0  0  0  0  0  0  0  0  0  0  0
   -7.0835    2.9436    7.7393 H   0  0  0  0  0  0  0  0  0  0  0  0
   -2.7575    3.6895    1.1476 H   0  0  0  0  0  0  0  0  0  0  0  0
   -1.9147    4.7868    2.2682 H   0  0  0  0  0  0  0  0  0  0  0  0
   -0.2424    3.5388    1.0072 H   0  0  0  0  0  0  0  0  0  0  0  0
   -1.0210    1.9927    1.4362 H   0  0  0  0  0  0  0  0  0  0  0  0
  1  2  2  0
  2  3  2  0
  2  4  1  0
  2 14  1  6
  4 13  2  0
  4  5  1  0
  5  6  2  0
  5 37  1  0
  6  7  1  0
  6 38  1  0
  7  8  1  0
  7 12  2  0
  8  9  1  1
  8 10  1  0
  8 11  1  0
 12 13  1  0
 12 39  1  0
 13 40  1  0
 14 36  1  0
 14 15  1  0
 15 16  1  0
 15 41  1  6
 15 42  1  0
 16 17  1  0
 16 43  1  1
 16 44  1  0
 17 18  1  0
 17 35  1  0
 18 19  1  0
 18 45  1  1
 18 46  1  0
 19 20  1  1
 19 21  1  0
 19 22  1  0
 21 47  1  0
 22 23  1  0
 22 48  1  1
 22 49  1  0
 23 24  1  0
 24 25  1  1
 24 34  1  0
 24 26  1  0
 26 27  1  0
 26 50  1  6
 26 51  1  0
 27 28  1  0
 27 52  1  1
 27 53  1  0
 28 29  1  0
 28 54  1  1
 28 55  1  0
 29 34  2  0
 29 30  1  0
 30 31  2  0
 30 56  1  0
 31 32  1  0
 31 57  1  0
 32 33  2  0
 32 58  1  0
 33 34  1  0
 33 59  1  0
 35 36  1  0
 35 60  1  6
 35 61  1  0
 36 62  1  6
 36 63  1  0
M  END
$$$$
