ZINC000003427413
     RDKit          3D

 45 47  0  0  0  0  0  0  0  0999 V2000
    0.0021   -0.0041    0.0020 O   0  0  0  0  0  0  0  0  0  0  0  0
   -0.0172    1.4168    0.0098 S   0  0  1  0  0  0  0  0  0  0  0  0
    1.1617    2.2101    0.0028 O   0  0  0  0  0  0  0  0  0  0  0  0
   -0.9567    1.9094   -1.3970 C   0  0  0  0  0  0  0  0  0  0  0  0
   -0.4619    2.8719   -2.2561 C   0  0  0  0  0  0  0  0  0  0  0  0
   -1.1990    3.2587   -3.3601 C   0  0  0  0  0  0  0  0  0  0  0  0
   -2.4316    2.6835   -3.6056 C   0  0  0  0  0  0  0  0  0  0  0  0
   -2.9288    1.7208   -2.7474 C   0  0  0  0  0  0  0  0  0  0  0  0
   -2.1888    1.3279   -1.6453 C   0  0  0  0  0  0  0  0  0  0  0  0
   -2.6738    0.3870   -0.8059 F   0  0  0  0  0  0  0  0  0  0  0  0
   -0.8748    1.8654    1.3536 N   0  0  0  0  0  0  0  0  0  0  0  0
   -0.6796    3.1911    1.9573 C   0  0  1  0  0  0  0  0  0  0  0  0
   -2.0388    3.8966    2.0404 C   0  0  1  0  0  0  0  0  0  0  0  0
   -3.0091    2.9765    2.6503 N   0  0  0  0  0  0  0  0  0  0  0  0
   -3.8674    3.4255    3.9934 S   0  0  1  0  0  0  0  0  0  0  0  0
   -4.2585    2.2224    4.6404 O   0  0  0  0  0  0  0  0  0  0  0  0
   -3.1076    4.4411    4.6341 O   0  0  0  0  0  0  0  0  0  0  0  0
   -5.3506    4.1933    3.4318 C   0  0  0  0  0  0  0  0  0  0  0  0
   -6.5746    3.6099    3.6986 C   0  0  0  0  0  0  0  0  0  0  0  0
   -7.7386    4.2122    3.2580 C   0  0  0  0  0  0  0  0  0  0  0  0
   -9.0730    3.5754    3.5492 C   0  0  1  0  0  0  0  0  0  0  0  0
   -9.5628    4.0559    4.7685 F   0  0  0  0  0  0  0  0  0  0  0  0
   -9.9741    3.8927    2.5272 F   0  0  0  0  0  0  0  0  0  0  0  0
   -8.9210    2.1867    3.6225 F   0  0  0  0  0  0  0  0  0  0  0  0
   -7.6787    5.3983    2.5509 C   0  0  0  0  0  0  0  0  0  0  0  0
   -6.4549    5.9829    2.2835 C   0  0  0  0  0  0  0  0  0  0  0  0
   -5.2904    5.3835    2.7286 C   0  0  0  0  0  0  0  0  0  0  0  0
   -3.7531    6.1170    2.3931 Cl  0  0  0  0  0  0  0  0  0  0  0  0
   -3.2042    1.6508    2.0465 C   0  0  1  0  0  0  0  0  0  0  0  0
   -1.8490    0.9474    1.9601 C   0  0  1  0  0  0  0  0  0  0  0  0
    0.5007    3.3226   -2.0649 H   0  0  0  0  0  0  0  0  0  0  0  0
   -0.8115    4.0111   -4.0310 H   0  0  0  0  0  0  0  0  0  0  0  0
   -3.0067    2.9866   -4.4680 H   0  0  0  0  0  0  0  0  0  0  0  0
   -3.8923    1.2719   -2.9390 H   0  0  0  0  0  0  0  0  0  0  0  0
   -0.2636    3.0794    2.9586 H   0  0  0  0  0  0  0  0  0  0  0  0
    0.0000    3.7780    1.3395 H   0  0  0  0  0  0  0  0  0  0  0  0
   -1.9489    4.7928    2.6543 H   0  0  0  0  0  0  0  0  0  0  0  0
   -2.3719    4.1682    1.0387 H   0  0  0  0  0  0  0  0  0  0  0  0
   -6.6220    2.6831    4.2510 H   0  0  0  0  0  0  0  0  0  0  0  0
   -8.5882    5.8683    2.2070 H   0  0  0  0  0  0  0  0  0  0  0  0
   -6.4083    6.9097    1.7310 H   0  0  0  0  0  0  0  0  0  0  0  0
   -3.8838    1.0639    2.6644 H   0  0  0  0  0  0  0  0  0  0  0  0
   -3.6202    1.7625    1.0453 H   0  0  0  0  0  0  0  0  0  0  0  0
   -1.9405    0.0514    1.3461 H   0  0  0  0  0  0  0  0  0  0  0  0
   -1.5136    0.6754    2.9609 H   0  0  0  0  0  0  0  0  0  0  0  0
  1  2  2  0
  2  3  2  0
  2  4  1  0
  2 11  1  1
  4  9  2  0
  4  5  1  0
  5  6  2  0
  5 31  1  0
  6  7  1  0
  6 32  1  0
  7  8  2  0
  7 33  1  0
  8  9  1  0
  8 34  1  0
  9 10  1  0
 11 30  1  0
 11 12  1  0
 12 13  1  0
 12 35  1  1
 12 36  1  0
 13 14  1  0
 13 37  1  1
 13 38  1  0
 15 14  1  6
 14 29  1  0
 15 16  2  0
 15 17  2  0
 15 18  1  0
 18 27  2  0
 18 19  1  0
 19 20  2  0
 19 39  1  0
 20 21  1  0
 20 25  1  0
 21 22  1  1
 21 23  1  0
 21 24  1  0
 25 26  2  0
 25 40  1  0
 26 27  1  0
 26 41  1  0
 27 28  1  0
 29 30  1  0
 29 42  1  1
 29 43  1  0
 30 44  1  6
 30 45  1  0
M  END
$$$$
