ZINC000053202973
     RDKit          3D

 39 40  0  0  1  0  0  0  0  0999 V2000
   -0.0178    1.4648    0.0101 C   0  0  1  0  0  0  0  0  0  0  0  0
    0.0021   -0.0041    0.0020 N   0  0  1  0  0  0  0  0  0  0  0  0
    0.4901   -0.3383    0.8195 H   0  0  0  0  0  0  0  0  0  0  0  0
   -0.9445   -0.3533    0.0092 H   0  0  0  0  0  0  0  0  0  0  0  0
    0.6897   -0.4778   -1.2066 C   0  0  1  0  0  0  0  0  0  0  0  0
    0.2162   -0.0450   -2.0878 H   0  0  0  0  0  0  0  0  0  0  0  0
    2.1596   -0.0549   -1.1569 C   0  0  1  0  0  0  0  0  0  0  0  0
    2.8692   -0.5196   -2.4308 C   0  0  1  0  0  0  0  0  0  0  0  0
    2.8084   -2.0479   -2.5159 C   0  0  1  0  0  0  0  0  0  0  0  0
    1.4049   -2.4715   -2.4182 N   0  0  0  0  0  0  0  0  0  0  0  0
    0.7384   -3.4556   -3.5713 S   0  0  1  0  0  0  0  0  0  0  0  0
   -0.6647   -3.2353   -3.5247 O   0  0  0  0  0  0  0  0  0  0  0  0
    1.5144   -3.2774   -4.7483 O   0  0  0  0  0  0  0  0  0  0  0  0
    0.9984   -5.1189   -3.0511 C   0  0  0  0  0  0  0  0  0  0  0  0
    2.1467   -5.7896   -3.4284 C   0  0  0  0  0  0  0  0  0  0  0  0
    2.3507   -7.0945   -3.0202 C   0  0  0  0  0  0  0  0  0  0  0  0
    1.4065   -7.7285   -2.2344 C   0  0  0  0  0  0  0  0  0  0  0  0
    1.6287   -9.1512   -1.7898 C   0  0  1  0  0  0  0  0  0  0  0  0
    2.3087   -9.1570   -0.5673 F   0  0  0  0  0  0  0  0  0  0  0  0
    0.3937   -9.7910   -1.6395 F   0  0  0  0  0  0  0  0  0  0  0  0
    2.3898   -9.8263   -2.7501 F   0  0  0  0  0  0  0  0  0  0  0  0
    0.2588   -7.0573   -1.8559 C   0  0  0  0  0  0  0  0  0  0  0  0
    0.0567   -5.7512   -2.2609 C   0  0  0  0  0  0  0  0  0  0  0  0
    0.6034   -2.0056   -1.2783 C   0  0  1  0  0  0  0  0  0  0  0  0
    1.0047    1.8421    0.0024 H   0  0  0  0  0  0  0  0  0  0  0  0
   -0.5450    1.8259   -0.8730 H   0  0  0  0  0  0  0  0  0  0  0  0
   -0.5280    1.8163    0.9069 H   0  0  0  0  0  0  0  0  0  0  0  0
    2.2229    1.0306   -1.0814 H   0  0  0  0  0  0  0  0  0  0  0  0
    2.6386   -0.5077   -0.2888 H   0  0  0  0  0  0  0  0  0  0  0  0
    2.3753   -0.0868   -3.3008 H   0  0  0  0  0  0  0  0  0  0  0  0
    3.9103   -0.1978   -2.4053 H   0  0  0  0  0  0  0  0  0  0  0  0
    3.2242   -2.3777   -3.4680 H   0  0  0  0  0  0  0  0  0  0  0  0
    3.3792   -2.4826   -1.6954 H   0  0  0  0  0  0  0  0  0  0  0  0
    2.8843   -5.2943   -4.0423 H   0  0  0  0  0  0  0  0  0  0  0  0
    3.2475   -7.6187   -3.3156 H   0  0  0  0  0  0  0  0  0  0  0  0
   -0.4786   -7.5525   -1.2417 H   0  0  0  0  0  0  0  0  0  0  0  0
   -0.8400   -5.2268   -1.9652 H   0  0  0  0  0  0  0  0  0  0  0  0
    0.9942   -2.4366   -0.3565 H   0  0  0  0  0  0  0  0  0  0  0  0
   -0.4350   -2.3079   -1.4139 H   0  0  0  0  0  0  0  0  0  0  0  0
  1  2  1  0
  1 25  1  6
  1 26  1  0
  1 27  1  0
  2  3  1  1
  2  4  1  0
  2  5  1  0
  5  6  1  6
  5 24  1  0
  5  7  1  0
  7  8  1  0
  7 28  1  1
  7 29  1  0
  8  9  1  0
  8 30  1  6
  8 31  1  0
  9 10  1  0
  9 32  1  6
  9 33  1  0
 11 10  1  1
 10 24  1  0
 11 12  2  0
 11 13  2  0
 11 14  1  0
 14 23  2  0
 14 15  1  0
 15 16  2  0
 15 34  1  0
 16 17  1  0
 16 35  1  0
 17 18  1  0
 17 22  2  0
 18 19  1  1
 18 20  1  0
 18 21  1  0
 22 23  1  0
 22 36  1  0
 23 37  1  0
 24 38  1  1
 24 39  1  0
M  CHG  1   2   1
M  END
$$$$
