ZINC000408549984
     RDKit          3D

 59 60  0  0  1  0  0  0  0  0999 V2000
   -0.0187    1.5258    0.0104 C   0  0  1  0  0  0  0  0  0  0  0  0
    0.0021   -0.0041    0.0020 C   0  0  1  0  0  0  0  0  0  0  0  0
    0.7182   -0.4975   -1.2568 C   0  0  1  0  0  0  0  0  0  0  0  0
    0.7390   -2.0273   -1.2652 C   0  0  1  0  0  0  0  0  0  0  0  0
   -0.2789   -2.4050   -1.1679 H   0  0  0  0  0  0  0  0  0  0  0  0
    1.3429   -2.5219   -2.5810 C   0  0  1  0  0  0  0  0  0  0  0  0
    1.5485   -2.5109   -0.1440 N   0  0  0  0  0  0  0  0  0  0  0  0
    1.3281   -3.7388    0.3660 C   0  0  0  0  0  0  0  0  0  0  0  0
    0.4596   -4.4434   -0.1031 O   0  0  0  0  0  0  0  0  0  0  0  0
    2.1609   -4.2362    1.5193 C   0  0  1  0  0  0  0  0  0  0  0  0
    1.7293   -5.5872    1.8864 N   0  0  0  0  0  0  0  0  0  0  0  0
    2.2724   -6.7479    1.1764 C   0  0  1  0  0  0  0  0  0  0  0  0
    3.5821   -7.1522    1.8028 C   0  0  0  0  0  0  0  0  0  0  0  0
    4.7655   -6.6030    1.3458 C   0  0  0  0  0  0  0  0  0  0  0  0
    5.9668   -6.9739    1.9203 C   0  0  0  0  0  0  0  0  0  0  0  0
    5.9847   -7.8936    2.9521 C   0  0  0  0  0  0  0  0  0  0  0  0
    4.8013   -8.4422    3.4097 C   0  0  0  0  0  0  0  0  0  0  0  0
    3.5995   -8.0681    2.8380 C   0  0  0  0  0  0  0  0  0  0  0  0
    0.6275   -5.8024    3.1038 S   0  0  1  0  0  0  0  0  0  0  0  0
    0.8211   -7.1229    3.5915 O   0  0  0  0  0  0  0  0  0  0  0  0
    0.7113   -4.6488    3.9293 O   0  0  0  0  0  0  0  0  0  0  0  0
   -0.9738   -5.7732    2.3692 C   0  0  0  0  0  0  0  0  0  0  0  0
   -1.6512   -4.5752    2.2382 C   0  0  0  0  0  0  0  0  0  0  0  0
   -2.9067   -4.5495    1.6621 C   0  0  0  0  0  0  0  0  0  0  0  0
   -3.4876   -5.7272    1.2150 C   0  0  0  0  0  0  0  0  0  0  0  0
   -4.7222   -5.7045    0.6476 O   0  0  0  0  0  0  0  0  0  0  0  0
   -5.3650   -4.4325    0.5433 C   0  0  1  0  0  0  0  0  0  0  0  0
   -2.8056   -6.9283    1.3476 C   0  0  0  0  0  0  0  0  0  0  0  0
   -3.4335   -8.2095    0.8625 C   0  0  1  0  0  0  0  0  0  0  0  0
   -1.5485   -6.9478    1.9195 C   0  0  0  0  0  0  0  0  0  0  0  0
    1.0039    1.9031    0.0027 H   0  0  0  0  0  0  0  0  0  0  0  0
   -0.5459    1.8868   -0.8726 H   0  0  0  0  0  0  0  0  0  0  0  0
   -0.5289    1.8773    0.9072 H   0  0  0  0  0  0  0  0  0  0  0  0
    0.5293   -0.3651    0.8851 H   0  0  0  0  0  0  0  0  0  0  0  0
   -1.0205   -0.3814    0.0098 H   0  0  0  0  0  0  0  0  0  0  0  0
    0.1910   -0.1364   -2.1398 H   0  0  0  0  0  0  0  0  0  0  0  0
    1.7408   -0.1202   -1.2645 H   0  0  0  0  0  0  0  0  0  0  0  0
    1.3577   -3.6118   -2.5870 H   0  0  0  0  0  0  0  0  0  0  0  0
    0.7406   -2.1622   -3.4152 H   0  0  0  0  0  0  0  0  0  0  0  0
    2.3608   -2.1442   -2.6783 H   0  0  0  0  0  0  0  0  0  0  0  0
    2.2431   -1.9473    0.2312 H   0  0  0  0  0  0  0  0  0  0  0  0
    3.2108   -4.2570    1.2271 H   0  0  0  0  0  0  0  0  0  0  0  0
    2.0345   -3.5700    2.3727 H   0  0  0  0  0  0  0  0  0  0  0  0
    1.5672   -7.5765    1.2419 H   0  0  0  0  0  0  0  0  0  0  0  0
    2.4344   -6.4905    0.1297 H   0  0  0  0  0  0  0  0  0  0  0  0
    4.7515   -5.8844    0.5397 H   0  0  0  0  0  0  0  0  0  0  0  0
    6.8914   -6.5453    1.5628 H   0  0  0  0  0  0  0  0  0  0  0  0
    6.9234   -8.1839    3.4005 H   0  0  0  0  0  0  0  0  0  0  0  0
    4.8153   -9.1610    4.2156 H   0  0  0  0  0  0  0  0  0  0  0  0
    2.6749   -8.4967    3.1955 H   0  0  0  0  0  0  0  0  0  0  0  0
   -1.1987   -3.6586    2.5868 H   0  0  0  0  0  0  0  0  0  0  0  0
   -3.4357   -3.6134    1.5603 H   0  0  0  0  0  0  0  0  0  0  0  0
   -4.7523   -3.7643   -0.0618 H   0  0  0  0  0  0  0  0  0  0  0  0
   -6.3408   -4.5560    0.0735 H   0  0  0  0  0  0  0  0  0  0  0  0
   -5.4923   -4.0070    1.5387 H   0  0  0  0  0  0  0  0  0  0  0  0
   -3.1576   -8.3779   -0.1785 H   0  0  0  0  0  0  0  0  0  0  0  0
   -3.0790   -9.0411    1.4714 H   0  0  0  0  0  0  0  0  0  0  0  0
   -4.5180   -8.1361    0.9437 H   0  0  0  0  0  0  0  0  0  0  0  0
   -1.0171   -7.8824    2.0226 H   0  0  0  0  0  0  0  0  0  0  0  0
  1  2  1  0
  1 31  1  6
  1 32  1  0
  1 33  1  0
  2  3  1  0
  2 34  1  1
  2 35  1  0
  3  4  1  0
  3 36  1  6
  3 37  1  0
  4  5  1  1
  4  6  1  0
  4  7  1  0
  6 38  1  1
  6 39  1  0
  6 40  1  0
  7  8  1  0
  7 41  1  0
  8  9  2  0
  8 10  1  0
 10 11  1  0
 10 42  1  6
 10 43  1  0
 11 12  1  0
 19 11  1  6
 12 13  1  0
 12 44  1  6
 12 45  1  0
 13 18  2  0
 13 14  1  0
 14 15  2  0
 14 46  1  0
 15 16  1  0
 15 47  1  0
 16 17  2  0
 16 48  1  0
 17 18  1  0
 17 49  1  0
 18 50  1  0
 19 20  2  0
 19 21  2  0
 19 22  1  0
 22 30  2  0
 22 23  1  0
 23 24  2  0
 23 51  1  0
 24 25  1  0
 24 52  1  0
 25 26  1  0
 25 28  2  0
 26 27  1  0
 27 53  1  6
 27 54  1  0
 27 55  1  0
 28 29  1  0
 28 30  1  0
 29 56  1  6
 29 57  1  0
 29 58  1  0
 30 59  1  0
M  END
$$$$
