ZINC000408702282
     RDKit          3D

 49 51  0  0  1  0  0  0  0  0999 V2000
    0.7135    1.3479   -0.0872 C   0  0  1  0  0  0  0  0  0  0  0  0
    0.2645   -0.1091   -0.2151 C   0  0  1  0  0  0  0  0  0  0  0  0
   -0.8089   -0.1435   -0.4019 H   0  0  0  0  0  0  0  0  0  0  0  0
    0.9948   -0.7611   -1.3608 C   0  0  0  0  0  0  0  0  0  0  0  0
    1.9888   -1.4229   -1.1482 O   0  0  0  0  0  0  0  0  0  0  0  0
    0.5435   -0.6089   -2.6216 N   0  0  0  0  0  0  0  0  0  0  0  0
    1.2804   -1.1219   -3.6955 C   0  0  0  0  0  0  0  0  0  0  0  0
    2.6296   -1.4082   -3.5396 C   0  0  0  0  0  0  0  0  0  0  0  0
    3.3542   -1.9149   -4.6012 C   0  0  0  0  0  0  0  0  0  0  0  0
    4.8189   -2.2264   -4.4321 C   0  0  1  0  0  0  0  0  0  0  0  0
    4.9678   -3.5493   -4.0021 F   0  0  0  0  0  0  0  0  0  0  0  0
    5.4760   -2.0569   -5.6556 F   0  0  0  0  0  0  0  0  0  0  0  0
    5.3728   -1.3619   -3.4818 F   0  0  0  0  0  0  0  0  0  0  0  0
    2.7373   -2.1371   -5.8183 C   0  0  0  0  0  0  0  0  0  0  0  0
    1.3932   -1.8528   -5.9780 C   0  0  0  0  0  0  0  0  0  0  0  0
    0.6613   -1.3512   -4.9186 C   0  0  0  0  0  0  0  0  0  0  0  0
   -1.0259   -0.9949   -5.1192 Cl  0  0  0  0  0  0  0  0  0  0  0  0
    0.5671   -0.8242    1.0272 N   0  0  0  0  0  0  0  0  0  0  0  0
    1.8798   -0.8630    1.5101 C   0  0  0  0  0  0  0  0  0  0  0  0
    2.5080    0.3088    1.9093 C   0  0  0  0  0  0  0  0  0  0  0  0
    3.8052    0.2711    2.3842 C   0  0  0  0  0  0  0  0  0  0  0  0
    4.4832   -0.9357    2.4638 C   0  0  0  0  0  0  0  0  0  0  0  0
    5.7644   -0.9519    2.9266 O   0  0  0  0  0  0  0  0  0  0  0  0
    6.2830   -2.2203    3.3412 C   0  0  1  0  0  0  0  0  0  0  0  0
    5.9288   -3.2586    2.2680 C   0  0  1  0  0  0  0  0  0  0  0  0
    4.5033   -3.3062    2.1437 O   0  0  0  0  0  0  0  0  0  0  0  0
    3.8556   -2.1114    2.0683 C   0  0  0  0  0  0  0  0  0  0  0  0
    2.5529   -2.0740    1.5956 C   0  0  0  0  0  0  0  0  0  0  0  0
   -0.6443   -1.5867    1.8599 S   0  0  1  0  0  0  0  0  0  0  0  0
   -0.7588   -3.2263    1.0922 C   0  0  1  0  0  0  0  0  0  0  0  0
   -0.1459   -1.6909    3.1865 O   0  0  0  0  0  0  0  0  0  0  0  0
   -1.8048   -0.8190    1.5715 O   0  0  0  0  0  0  0  0  0  0  0  0
    1.8009    1.3888   -0.0252 H   0  0  0  0  0  0  0  0  0  0  0  0
    0.3779    1.9094   -0.9591 H   0  0  0  0  0  0  0  0  0  0  0  0
    0.2815    1.7835    0.8137 H   0  0  0  0  0  0  0  0  0  0  0  0
   -0.2919   -0.1438   -2.7848 H   0  0  0  0  0  0  0  0  0  0  0  0
    3.1127   -1.2347   -2.5894 H   0  0  0  0  0  0  0  0  0  0  0  0
    3.3062   -2.5333   -6.6464 H   0  0  0  0  0  0  0  0  0  0  0  0
    0.9142   -2.0271   -6.9302 H   0  0  0  0  0  0  0  0  0  0  0  0
    1.9827    1.2505    1.8483 H   0  0  0  0  0  0  0  0  0  0  0  0
    4.2922    1.1840    2.6938 H   0  0  0  0  0  0  0  0  0  0  0  0
    7.3659   -2.1574    3.4485 H   0  0  0  0  0  0  0  0  0  0  0  0
    5.8349   -2.5075    4.2924 H   0  0  0  0  0  0  0  0  0  0  0  0
    6.3714   -2.9680    1.3152 H   0  0  0  0  0  0  0  0  0  0  0  0
    6.3048   -4.2375    2.5653 H   0  0  0  0  0  0  0  0  0  0  0  0
    2.0632   -2.9867    1.2897 H   0  0  0  0  0  0  0  0  0  0  0  0
    0.1388   -3.7995    1.3242 H   0  0  0  0  0  0  0  0  0  0  0  0
   -1.6336   -3.7485    1.4796 H   0  0  0  0  0  0  0  0  0  0  0  0
   -0.8503   -3.1160    0.0117 H   0  0  0  0  0  0  0  0  0  0  0  0
  1  2  1  0
  1 33  1  1
  1 34  1  0
  1 35  1  0
  2  3  1  6
  2  4  1  0
  2 18  1  0
  4  5  2  0
  4  6  1  0
  6  7  1  0
  6 36  1  0
  7 16  2  0
  7  8  1  0
  8  9  2  0
  8 37  1  0
  9 10  1  0
  9 14  1  0
 10 11  1  1
 10 12  1  0
 10 13  1  0
 14 15  2  0
 14 38  1  0
 15 16  1  0
 15 39  1  0
 16 17  1  0
 18 19  1  0
 29 18  1  6
 19 28  2  0
 19 20  1  0
 20 21  2  0
 20 40  1  0
 21 22  1  0
 21 41  1  0
 22 27  2  0
 22 23  1  0
 23 24  1  0
 24 25  1  0
 24 42  1  1
 24 43  1  0
 25 26  1  0
 25 44  1  6
 25 45  1  0
 26 27  1  0
 27 28  1  0
 28 46  1  0
 29 30  1  0
 29 31  2  0
 29 32  2  0
 30 47  1  6
 30 48  1  0
 30 49  1  0
M  END
$$$$
