ZINC000000387132
     RDKit          3D

 39 40  0  0  1  0  0  0  0  0999 V2000
    0.0331    1.5223   -0.0321 C   0  0  1  0  0  0  0  0  0  0  0  0
    0.0297   -0.0077   -0.0187 C   0  0  2  0  0  0  0  0  0  0  0  0
    0.4703   -0.3821   -0.9427 H   0  0  0  0  0  0  0  0  0  0  0  0
   -1.4096   -0.5170    0.1072 C   0  0  1  0  0  0  0  0  0  0  0  0
   -1.3962   -2.0397    0.2599 C   0  0  1  0  0  0  0  0  0  0  0  0
   -0.6362   -2.4197    1.5328 C   0  0  1  0  0  0  0  0  0  0  0  0
    0.8118   -1.9319    1.4231 C   0  0  1  0  0  0  0  0  0  0  0  0
    1.3303   -2.1117    2.3649 H   0  0  0  0  0  0  0  0  0  0  0  0
    1.5220   -2.6832    0.2952 C   0  0  1  0  0  0  0  0  0  0  0  0
    0.8079   -0.4919    1.1296 N   0  0  0  0  0  0  0  0  0  0  0  0
    1.6590    0.5649    2.0787 S   0  0  1  0  0  0  0  0  0  0  0  0
    0.9550    1.7985    2.0366 O   0  0  0  0  0  0  0  0  0  0  0  0
    1.9477   -0.1243    3.2874 O   0  0  0  0  0  0  0  0  0  0  0  0
    3.2068    0.8479    1.2856 C   0  0  0  0  0  0  0  0  0  0  0  0
    4.2876    0.0346    1.5693 C   0  0  0  0  0  0  0  0  0  0  0  0
    5.5021    0.2567    0.9470 C   0  0  0  0  0  0  0  0  0  0  0  0
    5.6352    1.2917    0.0408 C   0  0  0  0  0  0  0  0  0  0  0  0
    4.5537    2.1048   -0.2437 C   0  0  0  0  0  0  0  0  0  0  0  0
    4.6990    3.2336   -1.2314 C   0  0  1  0  0  0  0  0  0  0  0  0
    6.0086    3.2578   -1.7228 F   0  0  0  0  0  0  0  0  0  0  0  0
    3.8065    3.0432   -2.2918 F   0  0  0  0  0  0  0  0  0  0  0  0
    4.4166    4.4479   -0.5966 F   0  0  0  0  0  0  0  0  0  0  0  0
    3.3385    1.8801    0.3752 C   0  0  0  0  0  0  0  0  0  0  0  0
    1.0598    1.8838    0.0248 H   0  0  0  0  0  0  0  0  0  0  0  0
   -0.4271    1.8786   -0.9537 H   0  0  0  0  0  0  0  0  0  0  0  0
   -0.5310    1.8943    0.8232 H   0  0  0  0  0  0  0  0  0  0  0  0
   -1.8793   -0.0677    0.9822 H   0  0  0  0  0  0  0  0  0  0  0  0
   -1.9709   -0.2460   -0.7870 H   0  0  0  0  0  0  0  0  0  0  0  0
   -2.4203   -2.4071    0.3250 H   0  0  0  0  0  0  0  0  0  0  0  0
   -0.9043   -2.4869   -0.6039 H   0  0  0  0  0  0  0  0  0  0  0  0
   -1.1132   -1.9525    2.3944 H   0  0  0  0  0  0  0  0  0  0  0  0
   -0.6471   -3.5029    1.6533 H   0  0  0  0  0  0  0  0  0  0  0  0
    1.0050   -2.4982   -0.6464 H   0  0  0  0  0  0  0  0  0  0  0  0
    2.5520   -2.3348    0.2187 H   0  0  0  0  0  0  0  0  0  0  0  0
    1.5149   -3.7519    0.5097 H   0  0  0  0  0  0  0  0  0  0  0  0
    4.1836   -0.7742    2.2775 H   0  0  0  0  0  0  0  0  0  0  0  0
    6.3468   -0.3785    1.1693 H   0  0  0  0  0  0  0  0  0  0  0  0
    6.5840    1.4656   -0.4448 H   0  0  0  0  0  0  0  0  0  0  0  0
    2.4937    2.5152    0.1530 H   0  0  0  0  0  0  0  0  0  0  0  0
  1  2  1  0
  1 24  1  1
  1 25  1  0
  1 26  1  0
  2  3  1  6
  2 10  1  0
  2  4  1  0
  4  5  1  0
  4 27  1  1
  4 28  1  0
  5  6  1  0
  5 29  1  1
  5 30  1  0
  6  7  1  0
  6 31  1  1
  6 32  1  0
  7  8  1  1
  7  9  1  0
  7 10  1  0
  9 33  1  6
  9 34  1  0
  9 35  1  0
 11 10  1  6
 11 12  2  0
 11 13  2  0
 11 14  1  0
 14 23  2  0
 14 15  1  0
 15 16  2  0
 15 36  1  0
 16 17  1  0
 16 37  1  0
 17 18  2  0
 17 38  1  0
 18 19  1  0
 18 23  1  0
 19 20  1  6
 19 21  1  0
 19 22  1  0
 23 39  1  0
M  END
$$$$
