ZINC000112511457
     RDKit          3D

 42 43  0  0  1  0  0  0  0  0999 V2000
   -0.0187    1.5258    0.0104 C   0  0  1  0  0  0  0  0  0  0  0  0
    0.0021   -0.0041    0.0020 C   0  0  2  0  0  0  0  0  0  0  0  0
   -1.0205   -0.3814    0.0098 H   0  0  0  0  0  0  0  0  0  0  0  0
    0.7126   -0.4907    1.1921 N   0  0  1  0  0  0  0  0  0  0  0  0
    0.2403   -0.1653    2.0223 H   0  0  0  0  0  0  0  0  0  0  0  0
    0.7262   -1.4996    1.1866 H   0  0  0  0  0  0  0  0  0  0  0  0
    1.6592   -0.1414    1.1850 H   0  0  0  0  0  0  0  0  0  0  0  0
    0.7182   -0.4975   -1.2568 C   0  0  2  0  0  0  0  0  0  0  0  0
    1.7409   -0.1204   -1.2650 H   0  0  0  0  0  0  0  0  0  0  0  0
   -0.0224    0.0078   -2.4971 C   0  0  1  0  0  0  0  0  0  0  0  0
    0.7117   -0.4577   -3.7566 C   0  0  1  0  0  0  0  0  0  0  0  0
    0.7306   -1.9890   -3.7952 C   0  0  1  0  0  0  0  0  0  0  0  0
    1.3104   -2.4866   -2.5402 N   0  0  0  0  0  0  0  0  0  0  0  0
    2.5857   -3.5427   -2.5604 S   0  0  1  0  0  0  0  0  0  0  0  0
    2.5508   -4.2378   -1.3214 O   0  0  0  0  0  0  0  0  0  0  0  0
    2.5442   -4.1980   -3.8206 O   0  0  0  0  0  0  0  0  0  0  0  0
    4.0610   -2.5793   -2.5489 C   0  0  0  0  0  0  0  0  0  0  0  0
    4.6334   -2.1775   -3.7413 C   0  0  0  0  0  0  0  0  0  0  0  0
    5.7908   -1.4217   -3.7323 C   0  0  0  0  0  0  0  0  0  0  0  0
    6.3755   -1.0672   -2.5309 C   0  0  0  0  0  0  0  0  0  0  0  0
    7.6375   -0.2437   -2.5211 C   0  0  1  0  0  0  0  0  0  0  0  0
    7.3072    1.1155   -2.4931 F   0  0  0  0  0  0  0  0  0  0  0  0
    8.3941   -0.5631   -1.3885 F   0  0  0  0  0  0  0  0  0  0  0  0
    8.3828   -0.5188   -3.6726 F   0  0  0  0  0  0  0  0  0  0  0  0
    5.8023   -1.4678   -1.3385 C   0  0  0  0  0  0  0  0  0  0  0  0
    4.6428   -2.2204   -1.3474 C   0  0  0  0  0  0  0  0  0  0  0  0
    0.7379   -2.0292   -1.2666 C   0  0  1  0  0  0  0  0  0  0  0  0
    1.0039    1.9031    0.0027 H   0  0  0  0  0  0  0  0  0  0  0  0
   -0.5459    1.8868   -0.8726 H   0  0  0  0  0  0  0  0  0  0  0  0
   -0.5289    1.8773    0.9072 H   0  0  0  0  0  0  0  0  0  0  0  0
   -1.0375   -0.3892   -2.5007 H   0  0  0  0  0  0  0  0  0  0  0  0
   -0.0588    1.0971   -2.4796 H   0  0  0  0  0  0  0  0  0  0  0  0
    0.1968   -0.0779   -4.6391 H   0  0  0  0  0  0  0  0  0  0  0  0
    1.7346   -0.0815   -3.7416 H   0  0  0  0  0  0  0  0  0  0  0  0
   -0.2872   -2.3645   -3.9016 H   0  0  0  0  0  0  0  0  0  0  0  0
    1.3363   -2.3259   -4.6364 H   0  0  0  0  0  0  0  0  0  0  0  0
    4.1766   -2.4545   -4.6799 H   0  0  0  0  0  0  0  0  0  0  0  0
    6.2384   -1.1084   -4.6639 H   0  0  0  0  0  0  0  0  0  0  0  0
    6.2589   -1.1906   -0.3998 H   0  0  0  0  0  0  0  0  0  0  0  0
    4.1950   -2.5334   -0.4158 H   0  0  0  0  0  0  0  0  0  0  0  0
    1.3483   -2.3930   -0.4401 H   0  0  0  0  0  0  0  0  0  0  0  0
   -0.2794   -2.4077   -1.1664 H   0  0  0  0  0  0  0  0  0  0  0  0
  1  2  1  0
  1 28  1  6
  1 29  1  0
  1 30  1  0
  2  3  1  1
  2  4  1  0
  2  8  1  0
  4  5  1  1
  4  6  1  0
  4  7  1  0
  8  9  1  6
  8 27  1  0
  8 10  1  0
 10 11  1  0
 10 31  1  6
 10 32  1  0
 11 12  1  0
 11 33  1  6
 11 34  1  0
 12 13  1  0
 12 35  1  6
 12 36  1  0
 14 13  1  1
 13 27  1  0
 14 15  2  0
 14 16  2  0
 14 17  1  0
 17 26  2  0
 17 18  1  0
 18 19  2  0
 18 37  1  0
 19 20  1  0
 19 38  1  0
 20 21  1  0
 20 25  2  0
 21 22  1  1
 21 23  1  0
 21 24  1  0
 25 26  1  0
 25 39  1  0
 26 40  1  0
 27 41  1  1
 27 42  1  0
M  CHG  1   4   1
M  END
$$$$
