ZINC000035314564
     RDKit          3D

 45 47  0  0  0  0  0  0  0  0999 V2000
    0.0021   -0.0041    0.0020 O   0  0  0  0  0  0  0  0  0  0  0  0
   -0.0144    1.2085    0.0087 C   0  0  0  0  0  0  0  0  0  0  0  0
    1.2487    1.9609    0.0007 C   0  0  0  0  0  0  0  0  0  0  0  0
    1.2333    3.3601    0.0141 C   0  0  0  0  0  0  0  0  0  0  0  0
    2.4203    4.0590    0.0065 C   0  0  0  0  0  0  0  0  0  0  0  0
    3.6291    3.3788   -0.0150 C   0  0  0  0  0  0  0  0  0  0  0  0
    4.7897    4.0701   -0.0229 F   0  0  0  0  0  0  0  0  0  0  0  0
    3.6514    1.9918   -0.0280 C   0  0  0  0  0  0  0  0  0  0  0  0
    2.4716    1.2808   -0.0147 C   0  0  0  0  0  0  0  0  0  0  0  0
   -1.3296    1.9442    0.0189 C   0  0  1  0  0  0  0  0  0  0  0  0
   -1.7805    2.2025   -1.4205 C   0  0  1  0  0  0  0  0  0  0  0  0
   -3.1000    2.9806   -1.4062 C   0  0  1  0  0  0  0  0  0  0  0  0
   -4.0752    2.2430   -0.5915 N   0  0  0  0  0  0  0  0  0  0  0  0
   -5.5603    1.8457   -1.2071 S   0  0  1  0  0  0  0  0  0  0  0  0
   -6.4227    1.6686   -0.0917 O   0  0  0  0  0  0  0  0  0  0  0  0
   -5.8220    2.7717   -2.2527 O   0  0  0  0  0  0  0  0  0  0  0  0
   -5.4027    0.2653   -1.9701 C   0  0  0  0  0  0  0  0  0  0  0  0
   -5.0477    0.1736   -3.3030 C   0  0  0  0  0  0  0  0  0  0  0  0
   -4.9241   -1.0663   -3.9016 C   0  0  0  0  0  0  0  0  0  0  0  0
   -5.1551   -2.2145   -3.1672 C   0  0  0  0  0  0  0  0  0  0  0  0
   -5.0209   -3.5661   -3.8199 C   0  0  1  0  0  0  0  0  0  0  0  0
   -3.7057   -4.0226   -3.6810 F   0  0  0  0  0  0  0  0  0  0  0  0
   -5.8953   -4.4694   -3.2060 F   0  0  0  0  0  0  0  0  0  0  0  0
   -5.3370   -3.4613   -5.1787 F   0  0  0  0  0  0  0  0  0  0  0  0
   -5.5088   -2.1228   -1.8340 C   0  0  0  0  0  0  0  0  0  0  0  0
   -5.6286   -0.8830   -1.2344 C   0  0  0  0  0  0  0  0  0  0  0  0
   -3.7075    1.8642    0.7796 C   0  0  1  0  0  0  0  0  0  0  0  0
   -2.3812    1.0986    0.7408 C   0  0  1  0  0  0  0  0  0  0  0  0
    0.2928    3.8909    0.0301 H   0  0  0  0  0  0  0  0  0  0  0  0
    2.4098    5.1389    0.0168 H   0  0  0  0  0  0  0  0  0  0  0  0
    4.5958    1.4683   -0.0446 H   0  0  0  0  0  0  0  0  0  0  0  0
    2.4904    0.2010   -0.0244 H   0  0  0  0  0  0  0  0  0  0  0  0
   -1.2096    2.8952    0.5378 H   0  0  0  0  0  0  0  0  0  0  0  0
   -1.0203    2.7849   -1.9410 H   0  0  0  0  0  0  0  0  0  0  0  0
   -1.9247    1.2512   -1.9328 H   0  0  0  0  0  0  0  0  0  0  0  0
   -2.9370    3.9685   -0.9756 H   0  0  0  0  0  0  0  0  0  0  0  0
   -3.4761    3.0810   -2.4244 H   0  0  0  0  0  0  0  0  0  0  0  0
   -4.8673    1.0706   -3.8767 H   0  0  0  0  0  0  0  0  0  0  0  0
   -4.6475   -1.1380   -4.9431 H   0  0  0  0  0  0  0  0  0  0  0  0
   -5.6889   -3.0198   -1.2602 H   0  0  0  0  0  0  0  0  0  0  0  0
   -5.9049   -0.8114   -0.1928 H   0  0  0  0  0  0  0  0  0  0  0  0
   -3.5940    2.7611    1.3885 H   0  0  0  0  0  0  0  0  0  0  0  0
   -4.4843    1.2280    1.2038 H   0  0  0  0  0  0  0  0  0  0  0  0
   -2.5197    0.1577    0.2082 H   0  0  0  0  0  0  0  0  0  0  0  0
   -2.0485    0.8954    1.7587 H   0  0  0  0  0  0  0  0  0  0  0  0
  1  2  2  0
  2  3  1  0
  2 10  1  0
  3  9  2  0
  3  4  1  0
  4  5  2  0
  4 29  1  0
  5  6  1  0
  5 30  1  0
  6  7  1  0
  6  8  2  0
  8  9  1  0
  8 31  1  0
  9 32  1  0
 10 28  1  0
 10 11  1  0
 10 33  1  1
 11 12  1  0
 11 34  1  6
 11 35  1  0
 12 13  1  0
 12 36  1  1
 12 37  1  0
 14 13  1  1
 13 27  1  0
 14 15  2  0
 14 16  2  0
 14 17  1  0
 17 26  2  0
 17 18  1  0
 18 19  2  0
 18 38  1  0
 19 20  1  0
 19 39  1  0
 20 21  1  0
 20 25  2  0
 21 22  1  6
 21 23  1  0
 21 24  1  0
 25 26  1  0
 25 40  1  0
 26 41  1  0
 27 28  1  0
 27 42  1  1
 27 43  1  0
 28 44  1  6
 28 45  1  0
M  END
$$$$
