ZINC000000378813
     RDKit          3D

 35 36  0  0  0  0  0  0  0  0999 V2000
    0.0021   -0.0041    0.0020 O   0  0  0  0  0  0  0  0  0  0  0  0
   -0.0145    1.2150    0.0087 C   0  0  0  0  0  0  0  0  0  0  0  0
    1.0330    1.8389    0.0021 O   0  0  0  0  0  0  0  0  0  0  0  0
   -1.3296    1.9507    0.0190 C   0  0  1  0  0  0  0  0  0  0  0  0
   -2.3817    1.1043    0.7394 C   0  0  1  0  0  0  0  0  0  0  0  0
   -3.7253    1.8398    0.7175 C   0  0  1  0  0  0  0  0  0  0  0  0
   -3.5389    3.1822    1.2850 N   0  0  0  0  0  0  0  0  0  0  0  0
   -4.4916    3.7108    2.5321 S   0  0  1  0  0  0  0  0  0  0  0  0
   -4.4698    5.1307    2.4798 O   0  0  0  0  0  0  0  0  0  0  0  0
   -5.6897    2.9491    2.4725 O   0  0  0  0  0  0  0  0  0  0  0  0
   -3.6869    3.2558    4.0322 C   0  0  0  0  0  0  0  0  0  0  0  0
   -3.9513    2.0301    4.6141 C   0  0  0  0  0  0  0  0  0  0  0  0
   -3.3200    1.6732    5.7910 C   0  0  0  0  0  0  0  0  0  0  0  0
   -2.4240    2.5418    6.3856 C   0  0  0  0  0  0  0  0  0  0  0  0
   -1.7361    2.1528    7.6688 C   0  0  1  0  0  0  0  0  0  0  0  0
   -0.5393    1.4909    7.3743 F   0  0  0  0  0  0  0  0  0  0  0  0
   -1.4613    3.3022    8.4175 F   0  0  0  0  0  0  0  0  0  0  0  0
   -2.5692    1.3043    8.4059 F   0  0  0  0  0  0  0  0  0  0  0  0
   -2.1585    3.7669    5.8029 C   0  0  0  0  0  0  0  0  0  0  0  0
   -2.7869    4.1222    4.6241 C   0  0  0  0  0  0  0  0  0  0  0  0
   -2.4909    4.0465    0.7252 C   0  0  1  0  0  0  0  0  0  0  0  0
   -1.1611    3.2863    0.7469 C   0  0  1  0  0  0  0  0  0  0  0  0
   -1.6512    2.1340   -1.0063 H   0  0  0  0  0  0  0  0  0  0  0  0
   -2.4844    0.1440    0.2341 H   0  0  0  0  0  0  0  0  0  0  0  0
   -2.0728    0.9415    1.7719 H   0  0  0  0  0  0  0  0  0  0  0  0
   -4.0795    1.9234   -0.3099 H   0  0  0  0  0  0  0  0  0  0  0  0
   -4.4531    1.2890    1.3135 H   0  0  0  0  0  0  0  0  0  0  0  0
   -4.6514    1.3515    4.1495 H   0  0  0  0  0  0  0  0  0  0  0  0
   -3.5271    0.7159    6.2460 H   0  0  0  0  0  0  0  0  0  0  0  0
   -1.4582    4.4453    6.2673 H   0  0  0  0  0  0  0  0  0  0  0  0
   -2.5796    5.0794    4.1688 H   0  0  0  0  0  0  0  0  0  0  0  0
   -2.7444    4.3100   -0.3016 H   0  0  0  0  0  0  0  0  0  0  0  0
   -2.4042    4.9517    1.3261 H   0  0  0  0  0  0  0  0  0  0  0  0
   -0.8637    3.1029    1.7794 H   0  0  0  0  0  0  0  0  0  0  0  0
   -0.3950    3.8790    0.2470 H   0  0  0  0  0  0  0  0  0  0  0  0
  1  2  2  0
  2  3  1  0
  2  4  1  0
  4 22  1  0
  4  5  1  0
  4 23  1  6
  5  6  1  0
  5 24  1  6
  5 25  1  0
  6  7  1  0
  6 26  1  6
  6 27  1  0
  8  7  1  6
  7 21  1  0
  8  9  2  0
  8 10  2  0
  8 11  1  0
 11 20  2  0
 11 12  1  0
 12 13  2  0
 12 28  1  0
 13 14  1  0
 13 29  1  0
 14 15  1  0
 14 19  2  0
 15 16  1  6
 15 17  1  0
 15 18  1  0
 19 20  1  0
 19 30  1  0
 20 31  1  0
 21 22  1  0
 21 32  1  6
 21 33  1  0
 22 34  1  1
 22 35  1  0
M  END
$$$$
