ZINC000028207635
     RDKit          3D

 54 55  0  0  1  0  0  0  0  0999 V2000
   -0.0187    1.5258    0.0104 C   0  0  1  0  0  0  0  0  0  0  0  0
    0.0021   -0.0041    0.0020 C   0  0  1  0  0  0  0  0  0  0  0  0
    0.7106   -0.4894    1.1889 N   0  0  0  0  0  0  0  0  0  0  0  0
   -0.0062   -0.6460    2.4569 C   0  0  1  0  0  0  0  0  0  0  0  0
   -0.6935   -2.0126    2.4888 C   0  0  1  0  0  0  0  0  0  0  0  0
    2.3218   -0.8609    1.0971 S   0  0  1  0  0  0  0  0  0  0  0  0
    2.5823   -1.7795    2.1496 O   0  0  0  0  0  0  0  0  0  0  0  0
    2.5905   -1.1471   -0.2686 O   0  0  0  0  0  0  0  0  0  0  0  0
    3.2182    0.6060    1.4837 C   0  0  0  0  0  0  0  0  0  0  0  0
    3.5681    1.4863    0.4769 C   0  0  0  0  0  0  0  0  0  0  0  0
    4.2706    2.6375    0.7775 C   0  0  0  0  0  0  0  0  0  0  0  0
    4.6247    2.9095    2.0908 C   0  0  0  0  0  0  0  0  0  0  0  0
    5.3153    4.0413    2.3891 O   0  0  0  0  0  0  0  0  0  0  0  0
    5.6438    4.9068    1.3004 C   0  0  1  0  0  0  0  0  0  0  0  0
    6.4031    6.1006    1.8192 C   0  0  0  0  0  0  0  0  0  0  0  0
    6.6397    6.2005    3.0045 O   0  0  0  0  0  0  0  0  0  0  0  0
    6.8193    7.0573    0.9660 N   0  0  0  0  0  0  0  0  0  0  0  0
    7.5575    8.2179    1.4704 C   0  0  1  0  0  0  0  0  0  0  0  0
    7.9092    9.1445    0.3048 C   0  0  1  0  0  0  0  0  0  0  0  0
    7.0023    9.4781   -0.1995 H   0  0  0  0  0  0  0  0  0  0  0  0
    8.7215   10.3625    0.8122 C   0  0  1  0  0  0  0  0  0  0  0  0
    9.4873   10.7642   -0.4778 C   0  0  1  0  0  0  0  0  0  0  0  0
    9.7371    9.3970   -1.1498 C   0  0  1  0  0  0  0  0  0  0  0  0
    8.7766    8.4724   -0.6222 O   0  0  0  0  0  0  0  0  0  0  0  0
    4.2723    2.0243    3.0995 C   0  0  0  0  0  0  0  0  0  0  0  0
    4.6549    2.3170    4.5274 C   0  0  1  0  0  0  0  0  0  0  0  0
    3.5654    0.8775    2.7945 C   0  0  0  0  0  0  0  0  0  0  0  0
    1.0039    1.9031    0.0027 H   0  0  0  0  0  0  0  0  0  0  0  0
   -0.5459    1.8868   -0.8726 H   0  0  0  0  0  0  0  0  0  0  0  0
   -0.5289    1.8773    0.9072 H   0  0  0  0  0  0  0  0  0  0  0  0
   -1.0205   -0.3814    0.0098 H   0  0  0  0  0  0  0  0  0  0  0  0
    0.5123   -0.3556   -0.8948 H   0  0  0  0  0  0  0  0  0  0  0  0
    0.6997   -0.5749    3.2845 H   0  0  0  0  0  0  0  0  0  0  0  0
   -0.7557    0.1399    2.5501 H   0  0  0  0  0  0  0  0  0  0  0  0
   -1.3993   -2.0837    1.6613 H   0  0  0  0  0  0  0  0  0  0  0  0
    0.0560   -2.7985    2.3957 H   0  0  0  0  0  0  0  0  0  0  0  0
   -1.2268   -2.1291    3.4323 H   0  0  0  0  0  0  0  0  0  0  0  0
    3.2925    1.2739   -0.5455 H   0  0  0  0  0  0  0  0  0  0  0  0
    4.5441    3.3248   -0.0094 H   0  0  0  0  0  0  0  0  0  0  0  0
    6.2609    4.3680    0.5814 H   0  0  0  0  0  0  0  0  0  0  0  0
    4.7279    5.2421    0.8137 H   0  0  0  0  0  0  0  0  0  0  0  0
    6.6301    6.9774    0.0180 H   0  0  0  0  0  0  0  0  0  0  0  0
    6.9403    8.7566    2.1893 H   0  0  0  0  0  0  0  0  0  0  0  0
    8.4734    7.8825    1.9570 H   0  0  0  0  0  0  0  0  0  0  0  0
    8.0617   11.1644    1.1432 H   0  0  0  0  0  0  0  0  0  0  0  0
    9.4117   10.0720    1.6043 H   0  0  0  0  0  0  0  0  0  0  0  0
    8.8711   11.4014   -1.1122 H   0  0  0  0  0  0  0  0  0  0  0  0
   10.4297   11.2540   -0.2329 H   0  0  0  0  0  0  0  0  0  0  0  0
    9.6086    9.4861   -2.2285 H   0  0  0  0  0  0  0  0  0  0  0  0
   10.7463    9.0527   -0.9236 H   0  0  0  0  0  0  0  0  0  0  0  0
    3.8621    2.8923    5.0054 H   0  0  0  0  0  0  0  0  0  0  0  0
    4.7980    1.3795    5.0647 H   0  0  0  0  0  0  0  0  0  0  0  0
    5.5814    2.8909    4.5449 H   0  0  0  0  0  0  0  0  0  0  0  0
    3.2905    0.1883    3.5793 H   0  0  0  0  0  0  0  0  0  0  0  0
  1  2  1  0
  1 28  1  6
  1 29  1  0
  1 30  1  0
  2  3  1  0
  2 31  1  1
  2 32  1  0
  3  4  1  0
  6  3  1  6
  4  5  1  0
  4 33  1  1
  4 34  1  0
  5 35  1  6
  5 36  1  0
  5 37  1  0
  6  7  2  0
  6  8  2  0
  6  9  1  0
  9 27  2  0
  9 10  1  0
 10 11  2  0
 10 38  1  0
 11 12  1  0
 11 39  1  0
 12 13  1  0
 12 25  2  0
 13 14  1  0
 14 15  1  0
 14 40  1  6
 14 41  1  0
 15 16  2  0
 15 17  1  0
 17 18  1  0
 17 42  1  0
 18 19  1  0
 18 43  1  1
 18 44  1  0
 19 20  1  6
 19 24  1  0
 19 21  1  0
 21 22  1  0
 21 45  1  1
 21 46  1  0
 22 23  1  0
 22 47  1  6
 22 48  1  0
 23 24  1  0
 23 49  1  6
 23 50  1  0
 25 26  1  0
 25 27  1  0
 26 51  1  1
 26 52  1  0
 26 53  1  0
 27 54  1  0
M  END
$$$$
