ZINC000002726068
     RDKit          3D

 53 54  0  0  0  0  0  0  0  0999 V2000
   -0.0173    1.4248    0.0099 C   0  0  1  0  0  0  0  0  0  0  0  0
    0.0021   -0.0041    0.0020 O   0  0  0  0  0  0  0  0  0  0  0  0
    0.6734   -0.5824    1.1231 C   0  0  1  0  0  0  0  0  0  0  0  0
    0.6327   -2.1077    1.0107 C   0  0  1  0  0  0  0  0  0  0  0  0
    1.3514   -2.7270    2.2110 C   0  0  1  0  0  0  0  0  0  0  0  0
    1.3125   -4.1875    2.1034 N   0  0  0  0  0  0  0  0  0  0  0  0
    2.3252   -4.8910    1.3124 C   0  0  1  0  0  0  0  0  0  0  0  0
    3.5478   -5.1305    2.1603 C   0  0  0  0  0  0  0  0  0  0  0  0
    3.5709   -4.7509    3.3120 O   0  0  0  0  0  0  0  0  0  0  0  0
    4.6155   -5.7664    1.6389 N   0  0  0  0  0  0  0  0  0  0  0  0
    5.8040   -5.9993    2.4632 C   0  0  1  0  0  0  0  0  0  0  0  0
    6.8458   -6.7229    1.6495 C   0  0  0  0  0  0  0  0  0  0  0  0
    6.8681   -8.1049    1.6270 C   0  0  0  0  0  0  0  0  0  0  0  0
    7.8237   -8.7687    0.8806 C   0  0  0  0  0  0  0  0  0  0  0  0
    8.7568   -8.0505    0.1564 C   0  0  0  0  0  0  0  0  0  0  0  0
    8.7339   -6.6685    0.1782 C   0  0  0  0  0  0  0  0  0  0  0  0
    7.7757   -6.0047    0.9212 C   0  0  0  0  0  0  0  0  0  0  0  0
    0.1236   -5.0432    2.8758 S   0  0  1  0  0  0  0  0  0  0  0  0
    0.6313   -6.3573    3.0617 O   0  0  0  0  0  0  0  0  0  0  0  0
   -0.3279   -4.2258    3.9469 O   0  0  0  0  0  0  0  0  0  0  0  0
   -1.2284   -5.1861    1.7549 C   0  0  0  0  0  0  0  0  0  0  0  0
   -2.2152   -4.2183    1.7353 C   0  0  0  0  0  0  0  0  0  0  0  0
   -3.2758   -4.3303    0.8559 C   0  0  0  0  0  0  0  0  0  0  0  0
   -3.3494   -5.4100   -0.0042 C   0  0  0  0  0  0  0  0  0  0  0  0
   -4.5060   -5.5325   -0.9625 C   0  0  1  0  0  0  0  0  0  0  0  0
   -2.3619   -6.3772    0.0145 C   0  0  0  0  0  0  0  0  0  0  0  0
   -1.2993   -6.2631    0.8912 C   0  0  0  0  0  0  0  0  0  0  0  0
    1.0053    1.8021    0.0021 H   0  0  0  0  0  0  0  0  0  0  0  0
   -0.5445    1.7859   -0.8732 H   0  0  0  0  0  0  0  0  0  0  0  0
   -0.5275    1.7763    0.9067 H   0  0  0  0  0  0  0  0  0  0  0  0
    1.7103   -0.2468    1.1385 H   0  0  0  0  0  0  0  0  0  0  0  0
    0.1775   -0.2725    2.0430 H   0  0  0  0  0  0  0  0  0  0  0  0
   -0.4042   -2.4434    0.9953 H   0  0  0  0  0  0  0  0  0  0  0  0
    1.1285   -2.4176    0.0908 H   0  0  0  0  0  0  0  0  0  0  0  0
    2.3884   -2.3913    2.2264 H   0  0  0  0  0  0  0  0  0  0  0  0
    0.8556   -2.4171    3.1309 H   0  0  0  0  0  0  0  0  0  0  0  0
    1.9238   -5.8467    0.9755 H   0  0  0  0  0  0  0  0  0  0  0  0
    2.5959   -4.2854    0.4475 H   0  0  0  0  0  0  0  0  0  0  0  0
    4.5971   -6.0700    0.7178 H   0  0  0  0  0  0  0  0  0  0  0  0
    6.2054   -5.0435    2.8001 H   0  0  0  0  0  0  0  0  0  0  0  0
    5.5333   -6.6048    3.3281 H   0  0  0  0  0  0  0  0  0  0  0  0
    6.1391   -8.6660    2.1928 H   0  0  0  0  0  0  0  0  0  0  0  0
    7.8415   -9.8484    0.8636 H   0  0  0  0  0  0  0  0  0  0  0  0
    9.5038   -8.5691   -0.4261 H   0  0  0  0  0  0  0  0  0  0  0  0
    9.4631   -6.1074   -0.3873 H   0  0  0  0  0  0  0  0  0  0  0  0
    7.7578   -4.9250    0.9382 H   0  0  0  0  0  0  0  0  0  0  0  0
   -2.1576   -3.3747    2.4072 H   0  0  0  0  0  0  0  0  0  0  0  0
   -4.0472   -3.5746    0.8410 H   0  0  0  0  0  0  0  0  0  0  0  0
   -4.2554   -5.0356   -1.8998 H   0  0  0  0  0  0  0  0  0  0  0  0
   -4.7099   -6.5861   -1.1531 H   0  0  0  0  0  0  0  0  0  0  0  0
   -5.3892   -5.0643   -0.5279 H   0  0  0  0  0  0  0  0  0  0  0  0
   -2.4192   -7.2205   -0.6577 H   0  0  0  0  0  0  0  0  0  0  0  0
   -0.5277   -7.0187    0.9058 H   0  0  0  0  0  0  0  0  0  0  0  0
  1  2  1  0
  1 28  1  6
  1 29  1  0
  1 30  1  0
  2  3  1  0
  3  4  1  0
  3 31  1  1
  3 32  1  0
  4  5  1  0
  4 33  1  6
  4 34  1  0
  5  6  1  0
  5 35  1  1
  5 36  1  0
  6  7  1  0
 18  6  1  6
  7  8  1  0
  7 37  1  6
  7 38  1  0
  8  9  2  0
  8 10  1  0
 10 11  1  0
 10 39  1  0
 11 12  1  0
 11 40  1  1
 11 41  1  0
 12 17  2  0
 12 13  1  0
 13 14  2  0
 13 42  1  0
 14 15  1  0
 14 43  1  0
 15 16  2  0
 15 44  1  0
 16 17  1  0
 16 45  1  0
 17 46  1  0
 18 19  2  0
 18 20  2  0
 18 21  1  0
 21 27  2  0
 21 22  1  0
 22 23  2  0
 22 47  1  0
 23 24  1  0
 23 48  1  0
 24 25  1  0
 24 26  2  0
 25 49  1  6
 25 50  1  0
 25 51  1  0
 26 27  1  0
 26 52  1  0
 27 53  1  0
M  END
$$$$
