ZINC000005814300
     RDKit          3D

 54 56  0  0  1  0  0  0  0  0999 V2000
   -0.0184    1.5028    0.0103 C   0  0  1  0  0  0  0  0  0  0  0  0
    0.0021   -0.0041    0.0020 C   0  0  0  0  0  0  0  0  0  0  0  0
    0.0057   -0.6887   -1.1989 C   0  0  0  0  0  0  0  0  0  0  0  0
    0.0245   -2.0709   -1.2065 C   0  0  0  0  0  0  0  0  0  0  0  0
    0.0400   -2.7685   -0.0132 C   0  0  0  0  0  0  0  0  0  0  0  0
    0.0600   -4.2753   -0.0215 C   0  0  1  0  0  0  0  0  0  0  0  0
    1.4475   -4.7453   -0.0315 N   0  0  0  0  0  0  0  0  0  0  0  0
    2.1835   -4.8824    1.2278 C   0  0  1  0  0  0  0  0  0  0  0  0
    1.8847   -6.2264    1.8405 C   0  0  0  0  0  0  0  0  0  0  0  0
    1.1311   -6.9941    1.2805 O   0  0  0  0  0  0  0  0  0  0  0  0
    2.4548   -6.5752    3.0108 N   0  0  0  0  0  0  0  0  0  0  0  0
    2.1643   -7.8817    3.6065 C   0  0  1  0  0  0  0  0  0  0  0  0
    2.9330   -8.0249    4.9216 C   0  0  1  0  0  0  0  0  0  0  0  0
    2.6459   -7.2343    5.6149 H   0  0  0  0  0  0  0  0  0  0  0  0
    2.6668   -9.4154    5.5515 C   0  0  1  0  0  0  0  0  0  0  0  0
    3.9438   -9.5964    6.4166 C   0  0  1  0  0  0  0  0  0  0  0  0
    5.0203   -8.8921    5.5631 C   0  0  1  0  0  0  0  0  0  0  0  0
    4.3482   -7.9855    4.6788 O   0  0  0  0  0  0  0  0  0  0  0  0
    2.1840   -5.1215   -1.4662 S   0  0  1  0  0  0  0  0  0  0  0  0
    3.1329   -6.1386   -1.1755 O   0  0  0  0  0  0  0  0  0  0  0  0
    1.1441   -5.2789   -2.4218 O   0  0  0  0  0  0  0  0  0  0  0  0
    3.1081   -3.7066   -1.9649 C   0  0  0  0  0  0  0  0  0  0  0  0
    2.5164   -2.7371   -2.7527 C   0  0  0  0  0  0  0  0  0  0  0  0
    3.2414   -1.6271   -3.1440 C   0  0  0  0  0  0  0  0  0  0  0  0
    4.5580   -1.4863   -2.7470 C   0  0  0  0  0  0  0  0  0  0  0  0
    5.1495   -2.4554   -1.9584 C   0  0  0  0  0  0  0  0  0  0  0  0
    4.4231   -3.5634   -1.5636 C   0  0  0  0  0  0  0  0  0  0  0  0
    0.0378   -2.0839    1.1877 C   0  0  0  0  0  0  0  0  0  0  0  0
    0.0229   -0.7016    1.1953 C   0  0  0  0  0  0  0  0  0  0  0  0
    1.0042    1.8801    0.0026 H   0  0  0  0  0  0  0  0  0  0  0  0
   -0.5455    1.8639   -0.8728 H   0  0  0  0  0  0  0  0  0  0  0  0
   -0.5286    1.8543    0.9071 H   0  0  0  0  0  0  0  0  0  0  0  0
   -0.0064   -0.1436   -2.1312 H   0  0  0  0  0  0  0  0  0  0  0  0
    0.0266   -2.6057   -2.1448 H   0  0  0  0  0  0  0  0  0  0  0  0
   -0.4442   -4.6502    0.8692 H   0  0  0  0  0  0  0  0  0  0  0  0
   -0.4538   -4.6406   -0.9107 H   0  0  0  0  0  0  0  0  0  0  0  0
    3.2531   -4.8011    1.0342 H   0  0  0  0  0  0  0  0  0  0  0  0
    1.8777   -4.0936    1.9151 H   0  0  0  0  0  0  0  0  0  0  0  0
    3.0575   -5.9612    3.4588 H   0  0  0  0  0  0  0  0  0  0  0  0
    1.0947   -7.9630    3.8001 H   0  0  0  0  0  0  0  0  0  0  0  0
    2.4701   -8.6705    2.9192 H   0  0  0  0  0  0  0  0  0  0  0  0
    1.7708   -9.4005    6.1720 H   0  0  0  0  0  0  0  0  0  0  0  0
    2.5989  -10.1874    4.7850 H   0  0  0  0  0  0  0  0  0  0  0  0
    3.8311   -9.1040    7.3824 H   0  0  0  0  0  0  0  0  0  0  0  0
    4.1796  -10.6530    6.5438 H   0  0  0  0  0  0  0  0  0  0  0  0
    5.7014   -8.3389    6.2098 H   0  0  0  0  0  0  0  0  0  0  0  0
    5.5756   -9.6308    4.9850 H   0  0  0  0  0  0  0  0  0  0  0  0
    1.4877   -2.8470   -3.0629 H   0  0  0  0  0  0  0  0  0  0  0  0
    2.7793   -0.8699   -3.7601 H   0  0  0  0  0  0  0  0  0  0  0  0
    5.1246   -0.6194   -3.0532 H   0  0  0  0  0  0  0  0  0  0  0  0
    6.1782   -2.3457   -1.6485 H   0  0  0  0  0  0  0  0  0  0  0  0
    4.8852   -4.3205   -0.9474 H   0  0  0  0  0  0  0  0  0  0  0  0
    0.0503   -2.6289    2.1200 H   0  0  0  0  0  0  0  0  0  0  0  0
    0.0211   -0.1667    2.1335 H   0  0  0  0  0  0  0  0  0  0  0  0
  1  2  1  0
  1 30  1  6
  1 31  1  0
  1 32  1  0
  2 29  2  0
  2  3  1  0
  3  4  2  0
  3 33  1  0
  4  5  1  0
  4 34  1  0
  5  6  1  0
  5 28  2  0
  6  7  1  0
  6 35  1  1
  6 36  1  0
  7  8  1  0
 19  7  1  1
  8  9  1  0
  8 37  1  6
  8 38  1  0
  9 10  2  0
  9 11  1  0
 11 12  1  0
 11 39  1  0
 12 13  1  0
 12 40  1  1
 12 41  1  0
 13 14  1  1
 13 18  1  0
 13 15  1  0
 15 16  1  0
 15 42  1  1
 15 43  1  0
 16 17  1  0
 16 44  1  1
 16 45  1  0
 17 18  1  0
 17 46  1  1
 17 47  1  0
 19 20  2  0
 19 21  2  0
 19 22  1  0
 22 27  2  0
 22 23  1  0
 23 24  2  0
 23 48  1  0
 24 25  1  0
 24 49  1  0
 25 26  2  0
 25 50  1  0
 26 27  1  0
 26 51  1  0
 27 52  1  0
 28 29  1  0
 28 53  1  0
 29 54  1  0
M  END
$$$$
