ZINC000001098827
     RDKit          3D

 43 44  0  0  1  0  0  0  0  0999 V2000
   -0.7936    0.9860    0.0412 C   0  0  1  0  0  0  0  0  0  0  0  0
   -0.0341   -0.3302   -0.1375 C   0  0  2  0  0  0  0  0  0  0  0  0
    0.4081   -0.3621   -1.1333 H   0  0  0  0  0  0  0  0  0  0  0  0
   -0.9869   -1.4862    0.0264 C   0  0  0  0  0  0  0  0  0  0  0  0
   -0.7996   -2.3073    0.8992 O   0  0  0  0  0  0  0  0  0  0  0  0
   -2.0470   -1.6076   -0.7969 N   0  0  0  0  0  0  0  0  0  0  0  0
   -2.9823   -2.6279   -0.5879 C   0  0  0  0  0  0  0  0  0  0  0  0
   -2.5844   -3.8307   -0.0205 C   0  0  0  0  0  0  0  0  0  0  0  0
   -3.5099   -4.8357    0.1850 C   0  0  0  0  0  0  0  0  0  0  0  0
   -3.0783   -6.1415    0.8014 C   0  0  1  0  0  0  0  0  0  0  0  0
   -3.2015   -6.0636    2.1928 F   0  0  0  0  0  0  0  0  0  0  0  0
   -3.8880   -7.1752    0.3187 F   0  0  0  0  0  0  0  0  0  0  0  0
   -1.7448   -6.3978    0.4649 F   0  0  0  0  0  0  0  0  0  0  0  0
   -4.8314   -4.6451   -0.1736 C   0  0  0  0  0  0  0  0  0  0  0  0
   -5.2319   -3.4484   -0.7395 C   0  0  0  0  0  0  0  0  0  0  0  0
   -4.3126   -2.4369   -0.9426 C   0  0  0  0  0  0  0  0  0  0  0  0
   -4.8157   -0.9347   -1.6525 Cl  0  0  0  0  0  0  0  0  0  0  0  0
    1.0250   -0.4236    0.8703 N   0  0  0  0  0  0  0  0  0  0  0  0
    0.7140   -0.2865    2.2250 C   0  0  0  0  0  0  0  0  0  0  0  0
    0.7571   -1.3923    3.0646 C   0  0  0  0  0  0  0  0  0  0  0  0
    0.4494   -1.2531    4.4037 C   0  0  0  0  0  0  0  0  0  0  0  0
    0.0982   -0.0147    4.9090 C   0  0  0  0  0  0  0  0  0  0  0  0
    0.0543    1.0883    4.0760 C   0  0  0  0  0  0  0  0  0  0  0  0
    0.3664    0.9572    2.7371 C   0  0  0  0  0  0  0  0  0  0  0  0
    2.5910   -0.6918    0.4033 S   0  0  1  0  0  0  0  0  0  0  0  0
    3.3136    0.9666    0.2688 C   0  0  1  0  0  0  0  0  0  0  0  0
    3.1656   -1.3991    1.4937 O   0  0  0  0  0  0  0  0  0  0  0  0
    2.4763   -1.2913   -0.8799 O   0  0  0  0  0  0  0  0  0  0  0  0
   -0.1022    1.8218   -0.0660 H   0  0  0  0  0  0  0  0  0  0  0  0
   -1.5742    1.0607   -0.7158 H   0  0  0  0  0  0  0  0  0  0  0  0
   -1.2453    1.0130    1.0328 H   0  0  0  0  0  0  0  0  0  0  0  0
   -2.1620   -0.9880   -1.5343 H   0  0  0  0  0  0  0  0  0  0  0  0
   -1.5523   -3.9809    0.2597 H   0  0  0  0  0  0  0  0  0  0  0  0
   -5.5526   -5.4326   -0.0117 H   0  0  0  0  0  0  0  0  0  0  0  0
   -6.2649   -3.3027   -1.0189 H   0  0  0  0  0  0  0  0  0  0  0  0
    1.0305   -2.3599    2.6705 H   0  0  0  0  0  0  0  0  0  0  0  0
    0.4827   -2.1125    5.0570 H   0  0  0  0  0  0  0  0  0  0  0  0
   -0.1426    0.0913    5.9564 H   0  0  0  0  0  0  0  0  0  0  0  0
   -0.2203    2.0540    4.4738 H   0  0  0  0  0  0  0  0  0  0  0  0
    0.3322    1.8191    2.0871 H   0  0  0  0  0  0  0  0  0  0  0  0
    3.1252    1.5207    1.1884 H   0  0  0  0  0  0  0  0  0  0  0  0
    4.3885    0.8827    0.1089 H   0  0  0  0  0  0  0  0  0  0  0  0
    2.8612    1.4930   -0.5716 H   0  0  0  0  0  0  0  0  0  0  0  0
  1  2  1  0
  1 29  1  1
  1 30  1  0
  1 31  1  0
  2  3  1  6
  2  4  1  0
  2 18  1  0
  4  5  2  0
  4  6  1  0
  6  7  1  0
  6 32  1  0
  7 16  2  0
  7  8  1  0
  8  9  2  0
  8 33  1  0
  9 10  1  0
  9 14  1  0
 10 11  1  1
 10 12  1  0
 10 13  1  0
 14 15  2  0
 14 34  1  0
 15 16  1  0
 15 35  1  0
 16 17  1  0
 18 19  1  0
 25 18  1  1
 19 24  2  0
 19 20  1  0
 20 21  2  0
 20 36  1  0
 21 22  1  0
 21 37  1  0
 22 23  2  0
 22 38  1  0
 23 24  1  0
 23 39  1  0
 24 40  1  0
 25 26  1  0
 25 27  2  0
 25 28  2  0
 26 41  1  1
 26 42  1  0
 26 43  1  0
M  END
$$$$
