ZINC000085598159
     RDKit          3D

 54 56  0  0  0  0  0  0  0  0999 V2000
    0.0145    1.5034    0.0106 C   0  0  1  0  0  0  0  0  0  0  0  0
    0.0238   -0.0035    0.0023 C   0  0  0  0  0  0  0  0  0  0  0  0
    0.0232   -0.7852   -1.1040 C   0  0  0  0  0  0  0  0  0  0  0  0
    0.0122   -0.2206   -2.7731 S   0  0  1  0  0  0  0  0  0  0  0  0
   -0.5293   -1.2792   -3.5512 O   0  0  0  0  0  0  0  0  0  0  0  0
   -0.5402    1.0884   -2.7502 O   0  0  0  0  0  0  0  0  0  0  0  0
    1.5908   -0.0539   -3.2446 N   0  0  0  0  0  0  0  0  0  0  0  0
    2.2478    1.2160   -3.0300 C   0  0  1  0  0  0  0  0  0  0  0  0
    2.0278    2.1293   -4.2611 C   0  0  1  0  0  0  0  0  0  0  0  0
    2.8089    1.6389   -5.4070 C   0  0  1  0  0  0  0  0  0  0  0  0
    2.4085    0.2488   -5.8917 C   0  0  1  0  0  0  0  0  0  0  0  0
    3.1302   -0.7933   -5.0735 C   0  0  1  0  0  0  0  0  0  0  0  0
    2.2710   -1.2097   -3.8611 C   0  0  1  0  0  0  0  0  0  0  0  0
    0.0335   -2.1197   -0.6864 C   0  0  0  0  0  0  0  0  0  0  0  0
    0.0371   -3.3363   -1.5757 C   0  0  1  0  0  0  0  0  0  0  0  0
    0.0404   -2.1126    0.6925 C   0  0  0  0  0  0  0  0  0  0  0  0
    0.0521   -3.2910    1.5653 C   0  0  0  0  0  0  0  0  0  0  0  0
    0.0567   -4.4073    1.0805 O   0  0  0  0  0  0  0  0  0  0  0  0
    0.0579   -3.1378    2.9043 N   0  0  0  0  0  0  0  0  0  0  0  0
   -0.0286   -4.2581    3.7366 C   0  0  0  0  0  0  0  0  0  0  0  0
   -0.7254   -4.1822    4.9355 C   0  0  0  0  0  0  0  0  0  0  0  0
   -0.8089   -5.2907    5.7553 C   0  0  0  0  0  0  0  0  0  0  0  0
   -0.1994   -6.4748    5.3838 C   0  0  0  0  0  0  0  0  0  0  0  0
    0.4957   -6.5536    4.1906 C   0  0  0  0  0  0  0  0  0  0  0  0
    1.1589   -7.8461    3.7899 C   0  0  1  0  0  0  0  0  0  0  0  0
    0.9337   -8.8115    4.7771 F   0  0  0  0  0  0  0  0  0  0  0  0
    0.6239   -8.2878    2.5751 F   0  0  0  0  0  0  0  0  0  0  0  0
    2.5350   -7.6390    3.6456 F   0  0  0  0  0  0  0  0  0  0  0  0
    0.5774   -5.4511    3.3633 C   0  0  0  0  0  0  0  0  0  0  0  0
    0.0402   -0.7979    1.1004 N   0  0  0  0  0  0  0  0  0  0  0  0
    1.0399    1.8732    0.0025 H   0  0  0  0  0  0  0  0  0  0  0  0
   -0.5104    1.8684   -0.8722 H   0  0  0  0  0  0  0  0  0  0  0  0
   -0.4927    1.8586    0.9077 H   0  0  0  0  0  0  0  0  0  0  0  0
    1.8314    1.6949   -2.1438 H   0  0  0  0  0  0  0  0  0  0  0  0
    3.3157    1.0524   -2.8856 H   0  0  0  0  0  0  0  0  0  0  0  0
    0.9695    2.1348   -4.5217 H   0  0  0  0  0  0  0  0  0  0  0  0
    2.3422    3.1443   -4.0181 H   0  0  0  0  0  0  0  0  0  0  0  0
    2.6902    2.3408   -6.2325 H   0  0  0  0  0  0  0  0  0  0  0  0
    3.8614    1.6171   -5.1246 H   0  0  0  0  0  0  0  0  0  0  0  0
    1.3322    0.1198   -5.7773 H   0  0  0  0  0  0  0  0  0  0  0  0
    2.6787    0.1380   -6.9419 H   0  0  0  0  0  0  0  0  0  0  0  0
    3.3274   -1.6674   -5.6941 H   0  0  0  0  0  0  0  0  0  0  0  0
    4.0760   -0.3834   -4.7190 H   0  0  0  0  0  0  0  0  0  0  0  0
    2.9121   -1.6873   -3.1202 H   0  0  0  0  0  0  0  0  0  0  0  0
    1.5184   -1.9263   -4.1901 H   0  0  0  0  0  0  0  0  0  0  0  0
    1.0656   -3.6231   -1.7949 H   0  0  0  0  0  0  0  0  0  0  0  0
   -0.4692   -4.1580   -1.0693 H   0  0  0  0  0  0  0  0  0  0  0  0
   -0.4825   -3.1077   -2.5062 H   0  0  0  0  0  0  0  0  0  0  0  0
    0.1221   -2.2504    3.2906 H   0  0  0  0  0  0  0  0  0  0  0  0
   -1.2012   -3.2574    5.2266 H   0  0  0  0  0  0  0  0  0  0  0  0
   -1.3506   -5.2324    6.6878 H   0  0  0  0  0  0  0  0  0  0  0  0
   -0.2659   -7.3400    6.0268 H   0  0  0  0  0  0  0  0  0  0  0  0
    1.1204   -5.5132    2.4318 H   0  0  0  0  0  0  0  0  0  0  0  0
    0.0447   -0.4911    2.0206 H   0  0  0  0  0  0  0  0  0  0  0  0
  1  2  1  0
  1 31  1  6
  1 32  1  0
  1 33  1  0
  2 30  1  0
  2  3  2  0
  3  4  1  0
  3 14  1  0
  4  5  2  0
  4  6  2  0
  4  7  1  6
  7 13  1  0
  7  8  1  0
  8  9  1  0
  8 34  1  1
  8 35  1  0
  9 10  1  0
  9 36  1  6
  9 37  1  0
 10 11  1  0
 10 38  1  6
 10 39  1  0
 11 12  1  0
 11 40  1  6
 11 41  1  0
 12 13  1  0
 12 42  1  6
 12 43  1  0
 13 44  1  1
 13 45  1  0
 14 15  1  0
 14 16  2  0
 15 46  1  6
 15 47  1  0
 15 48  1  0
 16 17  1  0
 16 30  1  0
 17 18  2  0
 17 19  1  0
 19 20  1  0
 19 49  1  0
 20 29  2  0
 20 21  1  0
 21 22  2  0
 21 50  1  0
 22 23  1  0
 22 51  1  0
 23 24  2  0
 23 52  1  0
 24 25  1  0
 24 29  1  0
 25 26  1  1
 25 27  1  0
 25 28  1  0
 29 53  1  0
 30 54  1  0
M  END
$$$$
