ZINC000156102598
     RDKit          3D

 36 37  0  0  1  0  0  0  0  0999 V2000
   -0.7482    2.8476    2.0415 N   0  0  2  0  0  0  0  0  0  0  0  0
    0.1802    3.2097    2.1997 H   0  0  0  0  0  0  0  0  0  0  0  0
   -1.2970    2.9504    2.8819 H   0  0  0  0  0  0  0  0  0  0  0  0
   -1.1852    3.3594    1.2897 H   0  0  0  0  0  0  0  0  0  0  0  0
   -0.6646    1.4257    1.6822 C   0  0  1  0  0  0  0  0  0  0  0  0
    0.1154    0.6720    2.7613 C   0  0  1  0  0  0  0  0  0  0  0  0
    1.0796    1.1530    2.9257 H   0  0  0  0  0  0  0  0  0  0  0  0
   -0.6926    0.6527    4.0760 C   0  0  1  0  0  0  0  0  0  0  0  0
   -0.4179   -0.7696    4.6318 C   0  0  1  0  0  0  0  0  0  0  0  0
   -0.3510   -1.6051    3.3291 C   0  0  1  0  0  0  0  0  0  0  0  0
    0.3173   -0.7247    2.3487 N   0  0  0  0  0  0  0  0  0  0  0  0
    1.1496   -1.2289    1.0089 S   0  0  1  0  0  0  0  0  0  0  0  0
    1.9595   -0.1337    0.6039 O   0  0  0  0  0  0  0  0  0  0  0  0
    1.6763   -2.5108    1.3225 O   0  0  0  0  0  0  0  0  0  0  0  0
   -0.0306   -1.4766   -0.2758 C   0  0  0  0  0  0  0  0  0  0  0  0
   -0.7063   -2.6788   -0.3712 C   0  0  0  0  0  0  0  0  0  0  0  0
   -1.6322   -2.8732   -1.3790 C   0  0  0  0  0  0  0  0  0  0  0  0
   -1.8829   -1.8651   -2.2911 C   0  0  0  0  0  0  0  0  0  0  0  0
   -2.8920   -2.0772   -3.3901 C   0  0  1  0  0  0  0  0  0  0  0  0
   -4.1556   -1.6713   -2.9477 F   0  0  0  0  0  0  0  0  0  0  0  0
   -2.5262   -1.3240   -4.5108 F   0  0  0  0  0  0  0  0  0  0  0  0
   -2.9310   -3.4332   -3.7321 F   0  0  0  0  0  0  0  0  0  0  0  0
   -1.2082   -0.6624   -2.1949 C   0  0  0  0  0  0  0  0  0  0  0  0
   -0.2851   -0.4667   -1.1848 C   0  0  0  0  0  0  0  0  0  0  0  0
   -1.6696    1.0110    1.6038 H   0  0  0  0  0  0  0  0  0  0  0  0
   -0.1532    1.3222    0.7251 H   0  0  0  0  0  0  0  0  0  0  0  0
   -0.3260    1.4135    4.7651 H   0  0  0  0  0  0  0  0  0  0  0  0
   -1.7554    0.7905    3.8775 H   0  0  0  0  0  0  0  0  0  0  0  0
    0.5312   -0.8034    5.1668 H   0  0  0  0  0  0  0  0  0  0  0  0
   -1.2361   -1.1047    5.2693 H   0  0  0  0  0  0  0  0  0  0  0  0
    0.2371   -2.5090    3.4879 H   0  0  0  0  0  0  0  0  0  0  0  0
   -1.3551   -1.8596    2.9897 H   0  0  0  0  0  0  0  0  0  0  0  0
   -0.5104   -3.4664    0.3414 H   0  0  0  0  0  0  0  0  0  0  0  0
   -2.1596   -3.8127   -1.4540 H   0  0  0  0  0  0  0  0  0  0  0  0
   -1.4044    0.1252   -2.9073 H   0  0  0  0  0  0  0  0  0  0  0  0
    0.2420    0.4729   -1.1095 H   0  0  0  0  0  0  0  0  0  0  0  0
  1  2  1  1
  1  3  1  0
  1  4  1  0
  1  5  1  0
  5  6  1  0
  5 25  1  6
  5 26  1  0
  6  7  1  1
  6 11  1  0
  6  8  1  0
  8  9  1  0
  8 27  1  1
  8 28  1  0
  9 10  1  0
  9 29  1  1
  9 30  1  0
 10 11  1  0
 10 31  1  1
 10 32  1  0
 12 11  1  1
 12 13  2  0
 12 14  2  0
 12 15  1  0
 15 24  2  0
 15 16  1  0
 16 17  2  0
 16 33  1  0
 17 18  1  0
 17 34  1  0
 18 19  1  0
 18 23  2  0
 19 20  1  1
 19 21  1  0
 19 22  1  0
 23 24  1  0
 23 35  1  0
 24 36  1  0
M  CHG  1   1   1
M  END
$$$$
