ZINC000408621019
     RDKit          3D

 61 62  0  0  1  0  0  0  0  0999 V2000
   -0.0173    1.4248    0.0099 C   0  0  1  0  0  0  0  0  0  0  0  0
    0.0021   -0.0041    0.0020 O   0  0  0  0  0  0  0  0  0  0  0  0
    0.6518   -0.5703   -1.1379 C   0  0  1  0  0  0  0  0  0  0  0  0
    0.6131   -2.0967   -1.0411 C   0  0  1  0  0  0  0  0  0  0  0  0
    1.1847   -2.5275   -1.8631 H   0  0  0  0  0  0  0  0  0  0  0  0
    1.2226   -2.5389    0.2908 C   0  0  1  0  0  0  0  0  0  0  0  0
   -0.7759   -2.5559   -1.1188 N   0  0  0  0  0  0  0  0  0  0  0  0
   -1.0505   -3.8014   -1.5545 C   0  0  0  0  0  0  0  0  0  0  0  0
   -0.1478   -4.5420   -1.8822 O   0  0  0  0  0  0  0  0  0  0  0  0
   -2.4794   -4.2737   -1.6345 C   0  0  1  0  0  0  0  0  0  0  0  0
   -2.5113   -5.6507   -2.1337 N   0  0  0  0  0  0  0  0  0  0  0  0
   -2.3406   -6.7707   -1.2049 C   0  0  1  0  0  0  0  0  0  0  0  0
   -3.6906   -7.1226   -0.5767 C   0  0  1  0  0  0  0  0  0  0  0  0
   -3.5150   -8.2747    0.3787 C   0  0  0  0  0  0  0  0  0  0  0  0
   -3.6423   -9.5743   -0.0748 C   0  0  0  0  0  0  0  0  0  0  0  0
   -3.4813  -10.6311    0.8016 C   0  0  0  0  0  0  0  0  0  0  0  0
   -3.1925  -10.3883    2.1315 C   0  0  0  0  0  0  0  0  0  0  0  0
   -3.0643   -9.0887    2.5848 C   0  0  0  0  0  0  0  0  0  0  0  0
   -3.2211   -8.0320    1.7075 C   0  0  0  0  0  0  0  0  0  0  0  0
   -2.7403   -5.9412   -3.7479 S   0  0  1  0  0  0  0  0  0  0  0  0
   -3.2658   -7.2576   -3.8481 O   0  0  0  0  0  0  0  0  0  0  0  0
   -3.4025   -4.7980   -4.2713 O   0  0  0  0  0  0  0  0  0  0  0  0
   -1.1481   -5.9823   -4.5014 C   0  0  0  0  0  0  0  0  0  0  0  0
   -0.5881   -4.8188   -4.9940 C   0  0  0  0  0  0  0  0  0  0  0  0
    0.6610   -4.8459   -5.5867 C   0  0  0  0  0  0  0  0  0  0  0  0
    1.3541   -6.0411   -5.6873 C   0  0  0  0  0  0  0  0  0  0  0  0
    2.5828   -6.0694   -6.2694 O   0  0  0  0  0  0  0  0  0  0  0  0
    3.0989   -4.8289   -6.7560 C   0  0  1  0  0  0  0  0  0  0  0  0
    0.7903   -7.2129   -5.1907 C   0  0  0  0  0  0  0  0  0  0  0  0
    1.4670   -8.3886   -5.2866 O   0  0  0  0  0  0  0  0  0  0  0  0
    0.8270   -9.5507   -4.7555 C   0  0  1  0  0  0  0  0  0  0  0  0
   -0.4591   -7.1778   -4.5935 C   0  0  0  0  0  0  0  0  0  0  0  0
    1.0053    1.8021    0.0021 H   0  0  0  0  0  0  0  0  0  0  0  0
   -0.5445    1.7859   -0.8732 H   0  0  0  0  0  0  0  0  0  0  0  0
   -0.5275    1.7763    0.9067 H   0  0  0  0  0  0  0  0  0  0  0  0
    0.1385   -0.2506   -2.0447 H   0  0  0  0  0  0  0  0  0  0  0  0
    1.6883   -0.2344   -1.1694 H   0  0  0  0  0  0  0  0  0  0  0  0
    1.1950   -3.6264    0.3598 H   0  0  0  0  0  0  0  0  0  0  0  0
    2.2560   -2.1973    0.3487 H   0  0  0  0  0  0  0  0  0  0  0  0
    0.6509   -2.1081    1.1128 H   0  0  0  0  0  0  0  0  0  0  0  0
   -1.4979   -1.9635   -0.8568 H   0  0  0  0  0  0  0  0  0  0  0  0
   -2.9305   -4.2361   -0.6430 H   0  0  0  0  0  0  0  0  0  0  0  0
   -3.0379   -3.6284   -2.3125 H   0  0  0  0  0  0  0  0  0  0  0  0
   -1.9549   -7.6352   -1.7451 H   0  0  0  0  0  0  0  0  0  0  0  0
   -1.6376   -6.4888   -0.4210 H   0  0  0  0  0  0  0  0  0  0  0  0
   -4.0763   -6.2580   -0.0364 H   0  0  0  0  0  0  0  0  0  0  0  0
   -4.3936   -7.4045   -1.3606 H   0  0  0  0  0  0  0  0  0  0  0  0
   -3.8679   -9.7640   -1.1138 H   0  0  0  0  0  0  0  0  0  0  0  0
   -3.5814  -11.6464    0.4474 H   0  0  0  0  0  0  0  0  0  0  0  0
   -3.0674  -11.2140    2.8163 H   0  0  0  0  0  0  0  0  0  0  0  0
   -2.8391   -8.8990    3.6239 H   0  0  0  0  0  0  0  0  0  0  0  0
   -3.1210   -7.0167    2.0617 H   0  0  0  0  0  0  0  0  0  0  0  0
   -1.1274   -3.8863   -4.9163 H   0  0  0  0  0  0  0  0  0  0  0  0
    1.0961   -3.9354   -5.9715 H   0  0  0  0  0  0  0  0  0  0  0  0
    4.0831   -4.9921   -7.1952 H   0  0  0  0  0  0  0  0  0  0  0  0
    2.4254   -4.4270   -7.5129 H   0  0  0  0  0  0  0  0  0  0  0  0
    3.1820   -4.1214   -5.9310 H   0  0  0  0  0  0  0  0  0  0  0  0
   -0.1181   -9.7137   -5.2734 H   0  0  0  0  0  0  0  0  0  0  0  0
    1.4727  -10.4175   -4.8965 H   0  0  0  0  0  0  0  0  0  0  0  0
    0.6384   -9.4073   -3.6916 H   0  0  0  0  0  0  0  0  0  0  0  0
   -0.8988   -8.0856   -4.2074 H   0  0  0  0  0  0  0  0  0  0  0  0
  1  2  1  0
  1 33  1  6
  1 34  1  0
  1 35  1  0
  2  3  1  0
  3  4  1  0
  3 36  1  6
  3 37  1  0
  4  5  1  6
  4  6  1  0
  4  7  1  0
  6 38  1  1
  6 39  1  0
  6 40  1  0
  7  8  1  0
  7 41  1  0
  8  9  2  0
  8 10  1  0
 10 11  1  0
 10 42  1  1
 10 43  1  0
 11 12  1  0
 20 11  1  1
 12 13  1  0
 12 44  1  6
 12 45  1  0
 13 14  1  0
 13 46  1  1
 13 47  1  0
 14 19  2  0
 14 15  1  0
 15 16  2  0
 15 48  1  0
 16 17  1  0
 16 49  1  0
 17 18  2  0
 17 50  1  0
 18 19  1  0
 18 51  1  0
 19 52  1  0
 20 21  2  0
 20 22  2  0
 20 23  1  0
 23 32  2  0
 23 24  1  0
 24 25  2  0
 24 53  1  0
 25 26  1  0
 25 54  1  0
 26 27  1  0
 26 29  2  0
 27 28  1  0
 28 55  1  6
 28 56  1  0
 28 57  1  0
 29 30  1  0
 29 32  1  0
 30 31  1  0
 31 58  1  6
 31 59  1  0
 31 60  1  0
 32 61  1  0
M  END
$$$$
