ZINC000012778298
     RDKit          3D

 44 46  0  0  1  0  0  0  0  0999 V2000
    2.1922    1.3024   -0.1127 C   0  0  1  0  0  0  0  0  0  0  0  0
    2.0169   -0.1506   -0.1775 N   0  0  0  0  0  0  0  0  0  0  0  0
    0.9976   -0.6755   -0.8859 C   0  0  0  0  0  0  0  0  0  0  0  0
    0.2254    0.0551   -1.4698 O   0  0  0  0  0  0  0  0  0  0  0  0
    0.8173   -2.1702   -0.9526 C   0  0  1  0  0  0  0  0  0  0  0  0
    1.4525   -2.6516   -0.2091 H   0  0  0  0  0  0  0  0  0  0  0  0
   -0.6454   -2.5265   -0.6915 C   0  0  1  0  0  0  0  0  0  0  0  0
   -0.9208   -3.9615   -1.0561 C   0  0  0  0  0  0  0  0  0  0  0  0
   -2.0430   -4.5634   -0.5005 C   0  0  0  0  0  0  0  0  0  0  0  0
   -2.3582   -5.8725   -0.8005 C   0  0  0  0  0  0  0  0  0  0  0  0
   -1.5530   -6.5935   -1.6622 C   0  0  0  0  0  0  0  0  0  0  0  0
   -0.4358   -5.9992   -2.2128 C   0  0  0  0  0  0  0  0  0  0  0  0
   -0.1145   -4.6841   -1.9072 C   0  0  0  0  0  0  0  0  0  0  0  0
    1.1342   -4.1038   -2.5222 C   0  0  1  0  0  0  0  0  0  0  0  0
    1.1693   -2.6548   -2.2975 N   0  0  0  0  0  0  0  0  0  0  0  0
    1.5850   -1.6053   -3.5091 S   0  0  1  0  0  0  0  0  0  0  0  0
    1.9353   -0.3816   -2.8774 O   0  0  0  0  0  0  0  0  0  0  0  0
    2.4646   -2.3150   -4.3705 O   0  0  0  0  0  0  0  0  0  0  0  0
    0.1262   -1.2832   -4.4434 C   0  0  0  0  0  0  0  0  0  0  0  0
   -0.1954   -2.0861   -5.5214 C   0  0  0  0  0  0  0  0  0  0  0  0
   -1.3400   -1.8333   -6.2545 C   0  0  0  0  0  0  0  0  0  0  0  0
   -2.1629   -0.7779   -5.9091 C   0  0  0  0  0  0  0  0  0  0  0  0
   -1.8416    0.0247   -4.8302 C   0  0  0  0  0  0  0  0  0  0  0  0
   -2.7386    1.1757   -4.4539 C   0  0  1  0  0  0  0  0  0  0  0  0
   -3.8233    1.2293   -5.3358 F   0  0  0  0  0  0  0  0  0  0  0  0
   -3.2076    0.9940   -3.1484 F   0  0  0  0  0  0  0  0  0  0  0  0
   -2.0177    2.3724   -4.5281 F   0  0  0  0  0  0  0  0  0  0  0  0
   -0.6996   -0.2306   -4.0947 C   0  0  0  0  0  0  0  0  0  0  0  0
    2.3405    1.6957   -1.1184 H   0  0  0  0  0  0  0  0  0  0  0  0
    1.3043    1.7562    0.3276 H   0  0  0  0  0  0  0  0  0  0  0  0
    3.0622    1.5365    0.5009 H   0  0  0  0  0  0  0  0  0  0  0  0
    2.6345   -0.7349    0.2895 H   0  0  0  0  0  0  0  0  0  0  0  0
   -0.8680   -2.3759    0.3649 H   0  0  0  0  0  0  0  0  0  0  0  0
   -1.2849   -1.8760   -1.2881 H   0  0  0  0  0  0  0  0  0  0  0  0
   -2.6739   -4.0017    0.1723 H   0  0  0  0  0  0  0  0  0  0  0  0
   -3.2316   -6.3330   -0.3629 H   0  0  0  0  0  0  0  0  0  0  0  0
   -1.7970   -7.6176   -1.9032 H   0  0  0  0  0  0  0  0  0  0  0  0
    0.1932   -6.5619   -2.8867 H   0  0  0  0  0  0  0  0  0  0  0  0
    2.0108   -4.5619   -2.0640 H   0  0  0  0  0  0  0  0  0  0  0  0
    1.1385   -4.3055   -3.5934 H   0  0  0  0  0  0  0  0  0  0  0  0
    0.4476   -2.9108   -5.7913 H   0  0  0  0  0  0  0  0  0  0  0  0
   -1.5909   -2.4603   -7.0973 H   0  0  0  0  0  0  0  0  0  0  0  0
   -3.0566   -0.5800   -6.4822 H   0  0  0  0  0  0  0  0  0  0  0  0
   -0.4487    0.3964   -3.2519 H   0  0  0  0  0  0  0  0  0  0  0  0
  1  2  1  0
  1 29  1  6
  1 30  1  0
  1 31  1  0
  2  3  1  0
  2 32  1  0
  3  4  2  0
  3  5  1  0
  5  6  1  1
  5 15  1  0
  5  7  1  0
  7  8  1  0
  7 33  1  1
  7 34  1  0
  8 13  2  0
  8  9  1  0
  9 10  2  0
  9 35  1  0
 10 11  1  0
 10 36  1  0
 11 12  2  0
 11 37  1  0
 12 13  1  0
 12 38  1  0
 13 14  1  0
 14 15  1  0
 14 39  1  1
 14 40  1  0
 16 15  1  1
 16 17  2  0
 16 18  2  0
 16 19  1  0
 19 28  2  0
 19 20  1  0
 20 21  2  0
 20 41  1  0
 21 22  1  0
 21 42  1  0
 22 23  2  0
 22 43  1  0
 23 24  1  0
 23 28  1  0
 24 25  1  6
 24 26  1  0
 24 27  1  0
 28 44  1  0
M  END
$$$$
