ZINC000408781785
     RDKit          3D

 60 61  0  0  1  0  0  0  0  0999 V2000
   -0.0187    1.5258    0.0104 C   0  0  1  0  0  0  0  0  0  0  0  0
    0.0021   -0.0041    0.0020 C   0  0  1  0  0  0  0  0  0  0  0  0
    0.7421   -0.5109    1.2415 C   0  0  1  0  0  0  0  0  0  0  0  0
    0.2852   -0.0874    2.1360 H   0  0  0  0  0  0  0  0  0  0  0  0
    0.6554   -2.0374    1.2986 C   0  0  1  0  0  0  0  0  0  0  0  0
    2.1476   -0.1038    1.1716 N   0  0  0  0  0  0  0  0  0  0  0  0
    2.8685    0.0265    2.3029 C   0  0  0  0  0  0  0  0  0  0  0  0
    2.3536   -0.1931    3.3788 O   0  0  0  0  0  0  0  0  0  0  0  0
    4.3144    0.4453    2.2310 C   0  0  1  0  0  0  0  0  0  0  0  0
    4.8709    0.5137    3.5845 N   0  0  0  0  0  0  0  0  0  0  0  0
    5.3986   -0.6954    4.2215 C   0  0  1  0  0  0  0  0  0  0  0  0
    6.8522   -0.9050    3.7926 C   0  0  1  0  0  0  0  0  0  0  0  0
    7.3950   -2.1488    4.4479 C   0  0  0  0  0  0  0  0  0  0  0  0
    8.0083   -2.0673    5.6840 C   0  0  0  0  0  0  0  0  0  0  0  0
    8.5062   -3.2082    6.2851 C   0  0  0  0  0  0  0  0  0  0  0  0
    8.3904   -4.4306    5.6502 C   0  0  0  0  0  0  0  0  0  0  0  0
    7.7763   -4.5123    4.4145 C   0  0  0  0  0  0  0  0  0  0  0  0
    7.2745   -3.3720    3.8154 C   0  0  0  0  0  0  0  0  0  0  0  0
    4.9034    1.9578    4.3943 S   0  0  1  0  0  0  0  0  0  0  0  0
    5.9374    1.8512    5.3632 O   0  0  0  0  0  0  0  0  0  0  0  0
    4.8695    2.9749    3.4025 O   0  0  0  0  0  0  0  0  0  0  0  0
    3.3924    2.0869    5.2913 C   0  0  0  0  0  0  0  0  0  0  0  0
    2.2877    2.6708    4.7007 C   0  0  0  0  0  0  0  0  0  0  0  0
    1.0996    2.7750    5.4007 C   0  0  0  0  0  0  0  0  0  0  0  0
    1.0148    2.2930    6.6966 C   0  0  0  0  0  0  0  0  0  0  0  0
   -0.1530    2.3942    7.3862 O   0  0  0  0  0  0  0  0  0  0  0  0
   -1.2530    3.0093    6.7126 C   0  0  1  0  0  0  0  0  0  0  0  0
    2.1272    1.7045    7.2913 C   0  0  0  0  0  0  0  0  0  0  0  0
    2.0487    1.2295    8.5631 O   0  0  0  0  0  0  0  0  0  0  0  0
    3.2297    0.6383    9.1089 C   0  0  1  0  0  0  0  0  0  0  0  0
    3.3128    1.5987    6.5827 C   0  0  0  0  0  0  0  0  0  0  0  0
    1.0039    1.9031    0.0027 H   0  0  0  0  0  0  0  0  0  0  0  0
   -0.5459    1.8868   -0.8726 H   0  0  0  0  0  0  0  0  0  0  0  0
   -0.5289    1.8773    0.9072 H   0  0  0  0  0  0  0  0  0  0  0  0
   -1.0205   -0.3814    0.0098 H   0  0  0  0  0  0  0  0  0  0  0  0
    0.5123   -0.3556   -0.8948 H   0  0  0  0  0  0  0  0  0  0  0  0
    1.1826   -2.3985    2.1817 H   0  0  0  0  0  0  0  0  0  0  0  0
   -0.3904   -2.3402    1.3506 H   0  0  0  0  0  0  0  0  0  0  0  0
    1.1123   -2.4609    0.4042 H   0  0  0  0  0  0  0  0  0  0  0  0
    2.5595    0.0718    0.3111 H   0  0  0  0  0  0  0  0  0  0  0  0
    4.8747   -0.2826    1.6441 H   0  0  0  0  0  0  0  0  0  0  0  0
    4.3858    1.4251    1.7588 H   0  0  0  0  0  0  0  0  0  0  0  0
    5.3517   -0.5853    5.3049 H   0  0  0  0  0  0  0  0  0  0  0  0
    4.8024   -1.5559    3.9176 H   0  0  0  0  0  0  0  0  0  0  0  0
    6.8991   -1.0151    2.7092 H   0  0  0  0  0  0  0  0  0  0  0  0
    7.4483   -0.0445    4.0965 H   0  0  0  0  0  0  0  0  0  0  0  0
    8.0988   -1.1122    6.1800 H   0  0  0  0  0  0  0  0  0  0  0  0
    8.9860   -3.1444    7.2506 H   0  0  0  0  0  0  0  0  0  0  0  0
    8.7800   -5.3219    6.1195 H   0  0  0  0  0  0  0  0  0  0  0  0
    7.6861   -5.4673    3.9183 H   0  0  0  0  0  0  0  0  0  0  0  0
    6.7947   -3.4358    2.8499 H   0  0  0  0  0  0  0  0  0  0  0  0
    2.3525    3.0470    3.6904 H   0  0  0  0  0  0  0  0  0  0  0  0
    0.2380    3.2323    4.9372 H   0  0  0  0  0  0  0  0  0  0  0  0
   -1.4921    2.4412    5.8136 H   0  0  0  0  0  0  0  0  0  0  0  0
   -2.1200    3.0261    7.3731 H   0  0  0  0  0  0  0  0  0  0  0  0
   -0.9860    4.0296    6.4374 H   0  0  0  0  0  0  0  0  0  0  0  0
    3.5265   -0.2129    8.4961 H   0  0  0  0  0  0  0  0  0  0  0  0
    4.0328    1.3752    9.1205 H   0  0  0  0  0  0  0  0  0  0  0  0
    3.0307    0.3017   10.1264 H   0  0  0  0  0  0  0  0  0  0  0  0
    4.1774    1.1425    7.0418 H   0  0  0  0  0  0  0  0  0  0  0  0
  1  2  1  0
  1 32  1  6
  1 33  1  0
  1 34  1  0
  2  3  1  0
  2 35  1  1
  2 36  1  0
  3  4  1  1
  3  5  1  0
  3  6  1  0
  5 37  1  1
  5 38  1  0
  5 39  1  0
  6  7  1  0
  6 40  1  0
  7  8  2  0
  7  9  1  0
  9 10  1  0
  9 41  1  6
  9 42  1  0
 10 11  1  0
 19 10  1  6
 11 12  1  0
 11 43  1  1
 11 44  1  0
 12 13  1  0
 12 45  1  6
 12 46  1  0
 13 18  2  0
 13 14  1  0
 14 15  2  0
 14 47  1  0
 15 16  1  0
 15 48  1  0
 16 17  2  0
 16 49  1  0
 17 18  1  0
 17 50  1  0
 18 51  1  0
 19 20  2  0
 19 21  2  0
 19 22  1  0
 22 31  2  0
 22 23  1  0
 23 24  2  0
 23 52  1  0
 24 25  1  0
 24 53  1  0
 25 26  1  0
 25 28  2  0
 26 27  1  0
 27 54  1  6
 27 55  1  0
 27 56  1  0
 28 29  1  0
 28 31  1  0
 29 30  1  0
 30 57  1  6
 30 58  1  0
 30 59  1  0
 31 60  1  0
M  END
$$$$
