ZINC000408636477
     RDKit          3D

 51 53  0  0  0  0  0  0  0  0999 V2000
   -2.1982  -12.4013    5.7946 C   0  0  1  0  0  0  0  0  0  0  0  0
   -1.3878  -11.1659    5.3970 C   0  0  1  0  0  0  0  0  0  0  0  0
   -1.6145  -10.8714    4.0172 O   0  0  0  0  0  0  0  0  0  0  0  0
   -0.9642   -9.7955    3.5011 C   0  0  0  0  0  0  0  0  0  0  0  0
   -0.1207   -9.0422    4.3047 C   0  0  0  0  0  0  0  0  0  0  0  0
    0.5396   -7.9492    3.7775 C   0  0  0  0  0  0  0  0  0  0  0  0
    0.3600   -7.6056    2.4504 C   0  0  0  0  0  0  0  0  0  0  0  0
    1.2032   -6.2106    1.7812 S   0  0  1  0  0  0  0  0  0  0  0  0
    0.4342   -5.7721    0.6696 O   0  0  0  0  0  0  0  0  0  0  0  0
    1.5272   -5.3718    2.8815 O   0  0  0  0  0  0  0  0  0  0  0  0
    2.6422   -6.7551    1.1687 N   0  0  0  0  0  0  0  0  0  0  0  0
    3.7984   -6.9219    2.0528 C   0  0  1  0  0  0  0  0  0  0  0  0
    3.8695   -8.3521    2.5223 C   0  0  0  0  0  0  0  0  0  0  0  0
    3.0365   -9.1532    2.1546 O   0  0  0  0  0  0  0  0  0  0  0  0
    4.8589   -8.7410    3.3507 N   0  0  0  0  0  0  0  0  0  0  0  0
    4.9281  -10.1314    3.8071 C   0  0  1  0  0  0  0  0  0  0  0  0
    6.3010  -10.8067    3.8094 C   0  0  1  0  0  0  0  0  0  0  0  0
    5.6437  -10.4054    5.1314 C   0  0  1  0  0  0  0  0  0  0  0  0
    2.7590   -7.0699   -0.2573 C   0  0  1  0  0  0  0  0  0  0  0  0
    3.3279   -5.8817   -0.9891 C   0  0  0  0  0  0  0  0  0  0  0  0
    2.4810   -4.9748   -1.5984 C   0  0  0  0  0  0  0  0  0  0  0  0
    3.0029   -3.8849   -2.2696 C   0  0  0  0  0  0  0  0  0  0  0  0
    4.3716   -3.7016   -2.3313 C   0  0  0  0  0  0  0  0  0  0  0  0
    5.2185   -4.6080   -1.7213 C   0  0  0  0  0  0  0  0  0  0  0  0
    4.6965   -5.6956   -1.0464 C   0  0  0  0  0  0  0  0  0  0  0  0
   -0.4797   -8.3550    1.6473 C   0  0  0  0  0  0  0  0  0  0  0  0
   -1.1382   -9.4520    2.1683 C   0  0  0  0  0  0  0  0  0  0  0  0
   -1.8879  -13.2507    5.1861 H   0  0  0  0  0  0  0  0  0  0  0  0
   -2.0253  -12.6259    6.8471 H   0  0  0  0  0  0  0  0  0  0  0  0
   -3.2587  -12.2073    5.6340 H   0  0  0  0  0  0  0  0  0  0  0  0
   -1.6981  -10.3165    6.0056 H   0  0  0  0  0  0  0  0  0  0  0  0
   -0.3273  -11.3599    5.5577 H   0  0  0  0  0  0  0  0  0  0  0  0
    0.0194   -9.3098    5.3416 H   0  0  0  0  0  0  0  0  0  0  0  0
    1.1963   -7.3625    4.4027 H   0  0  0  0  0  0  0  0  0  0  0  0
    4.7099   -6.6719    1.5099 H   0  0  0  0  0  0  0  0  0  0  0  0
    3.6956   -6.2615    2.9138 H   0  0  0  0  0  0  0  0  0  0  0  0
    5.5252   -8.1003    3.6448 H   0  0  0  0  0  0  0  0  0  0  0  0
    4.0633  -10.7492    3.5651 H   0  0  0  0  0  0  0  0  0  0  0  0
    6.3397  -11.8691    3.5686 H   0  0  0  0  0  0  0  0  0  0  0  0
    7.1527  -10.2165    3.4713 H   0  0  0  0  0  0  0  0  0  0  0  0
    6.0630   -9.5512    5.6631 H   0  0  0  0  0  0  0  0  0  0  0  0
    5.2499  -11.2038    5.7604 H   0  0  0  0  0  0  0  0  0  0  0  0
    3.4197   -7.9271   -0.3872 H   0  0  0  0  0  0  0  0  0  0  0  0
    1.7738   -7.3065   -0.6591 H   0  0  0  0  0  0  0  0  0  0  0  0
    1.4116   -5.1180   -1.5502 H   0  0  0  0  0  0  0  0  0  0  0  0
    2.3412   -3.1768   -2.7462 H   0  0  0  0  0  0  0  0  0  0  0  0
    4.7794   -2.8505   -2.8564 H   0  0  0  0  0  0  0  0  0  0  0  0
    6.2879   -4.4650   -1.7698 H   0  0  0  0  0  0  0  0  0  0  0  0
    5.3582   -6.4038   -0.5698 H   0  0  0  0  0  0  0  0  0  0  0  0
   -0.6181   -8.0847    0.6108 H   0  0  0  0  0  0  0  0  0  0  0  0
   -1.7940  -10.0370    1.5406 H   0  0  0  0  0  0  0  0  0  0  0  0
  1  2  1  0
  1 28  1  6
  1 29  1  0
  1 30  1  0
  2  3  1  0
  2 31  1  1
  2 32  1  0
  3  4  1  0
  4 27  2  0
  4  5  1  0
  5  6  2  0
  5 33  1  0
  6  7  1  0
  6 34  1  0
  7  8  1  0
  7 26  2  0
  8  9  2  0
  8 10  2  0
  8 11  1  6
 11 12  1  0
 11 19  1  0
 12 13  1  0
 12 35  1  6
 12 36  1  0
 13 14  2  0
 13 15  1  0
 15 16  1  0
 15 37  1  0
 16 18  1  0
 16 17  1  0
 16 38  1  1
 17 18  1  0
 17 39  1  1
 17 40  1  0
 18 41  1  1
 18 42  1  0
 19 20  1  0
 19 43  1  1
 19 44  1  0
 20 25  2  0
 20 21  1  0
 21 22  2  0
 21 45  1  0
 22 23  1  0
 22 46  1  0
 23 24  2  0
 23 47  1  0
 24 25  1  0
 24 48  1  0
 25 49  1  0
 26 27  1  0
 26 50  1  0
 27 51  1  0
M  END
$$$$
