ZINC000025394054
     RDKit          3D

 47 48  0  0  1  0  0  0  0  0999 V2000
   -0.0187    1.5258    0.0104 C   0  0  1  0  0  0  0  0  0  0  0  0
    0.0021   -0.0041    0.0020 C   0  0  1  0  0  0  0  0  0  0  0  0
    0.7106   -0.4894    1.1889 N   0  0  0  0  0  0  0  0  0  0  0  0
   -0.0062   -0.6460    2.4569 C   0  0  1  0  0  0  0  0  0  0  0  0
   -0.6935   -2.0126    2.4888 C   0  0  1  0  0  0  0  0  0  0  0  0
    2.3218   -0.8609    1.0971 S   0  0  1  0  0  0  0  0  0  0  0  0
    2.5823   -1.7795    2.1496 O   0  0  0  0  0  0  0  0  0  0  0  0
    2.5905   -1.1471   -0.2686 O   0  0  0  0  0  0  0  0  0  0  0  0
    3.2182    0.6060    1.4837 C   0  0  0  0  0  0  0  0  0  0  0  0
    3.5687    1.4871    0.4779 C   0  0  0  0  0  0  0  0  0  0  0  0
    4.2720    2.6379    0.7812 C   0  0  0  0  0  0  0  0  0  0  0  0
    4.6242    2.9079    2.0903 C   0  0  0  0  0  0  0  0  0  0  0  0
    5.3913    4.1622    2.4209 C   0  0  1  0  0  0  0  0  0  0  0  0
    4.4509    5.2483    2.7077 N   0  0  0  0  0  0  0  0  0  0  0  0
    4.9134    6.4725    3.0304 C   0  0  0  0  0  0  0  0  0  0  0  0
    6.1080    6.6748    3.0834 O   0  0  0  0  0  0  0  0  0  0  0  0
    3.9461    7.5897    3.3255 C   0  0  1  0  0  0  0  0  0  0  0  0
    3.2615    7.7275    2.4886 H   0  0  0  0  0  0  0  0  0  0  0  0
    3.1551    7.2876    4.6231 C   0  0  1  0  0  0  0  0  0  0  0  0
    2.7646    8.7225    5.0712 C   0  0  1  0  0  0  0  0  0  0  0  0
    3.9865    9.5508    4.6191 C   0  0  1  0  0  0  0  0  0  0  0  0
    4.6583    8.8082    3.5929 O   0  0  0  0  0  0  0  0  0  0  0  0
    4.2724    2.0275    3.0963 C   0  0  0  0  0  0  0  0  0  0  0  0
    3.5659    0.8785    2.7936 C   0  0  0  0  0  0  0  0  0  0  0  0
    1.0039    1.9031    0.0027 H   0  0  0  0  0  0  0  0  0  0  0  0
   -0.5459    1.8868   -0.8726 H   0  0  0  0  0  0  0  0  0  0  0  0
   -0.5289    1.8773    0.9072 H   0  0  0  0  0  0  0  0  0  0  0  0
   -1.0205   -0.3814    0.0098 H   0  0  0  0  0  0  0  0  0  0  0  0
    0.5123   -0.3556   -0.8948 H   0  0  0  0  0  0  0  0  0  0  0  0
    0.6997   -0.5749    3.2845 H   0  0  0  0  0  0  0  0  0  0  0  0
   -0.7557    0.1399    2.5501 H   0  0  0  0  0  0  0  0  0  0  0  0
   -1.3993   -2.0837    1.6613 H   0  0  0  0  0  0  0  0  0  0  0  0
    0.0560   -2.7985    2.3957 H   0  0  0  0  0  0  0  0  0  0  0  0
   -1.2268   -2.1291    3.4323 H   0  0  0  0  0  0  0  0  0  0  0  0
    3.2935    1.2761   -0.5449 H   0  0  0  0  0  0  0  0  0  0  0  0
    4.5465    3.3259   -0.0048 H   0  0  0  0  0  0  0  0  0  0  0  0
    6.0188    3.9848    3.2943 H   0  0  0  0  0  0  0  0  0  0  0  0
    6.0182    4.4388    1.5732 H   0  0  0  0  0  0  0  0  0  0  0  0
    3.4955    5.0865    2.6654 H   0  0  0  0  0  0  0  0  0  0  0  0
    2.2700    6.6872    4.4129 H   0  0  0  0  0  0  0  0  0  0  0  0
    3.7890    6.8030    5.3658 H   0  0  0  0  0  0  0  0  0  0  0  0
    1.8603    9.0553    4.5617 H   0  0  0  0  0  0  0  0  0  0  0  0
    2.6419    8.7711    6.1532 H   0  0  0  0  0  0  0  0  0  0  0  0
    3.6562   10.5109    4.2227 H   0  0  0  0  0  0  0  0  0  0  0  0
    4.6585    9.7091    5.4626 H   0  0  0  0  0  0  0  0  0  0  0  0
    4.5473    2.2386    4.1192 H   0  0  0  0  0  0  0  0  0  0  0  0
    3.2910    0.1907    3.5795 H   0  0  0  0  0  0  0  0  0  0  0  0
  1  2  1  0
  1 25  1  6
  1 26  1  0
  1 27  1  0
  2  3  1  0
  2 28  1  1
  2 29  1  0
  3  4  1  0
  6  3  1  6
  4  5  1  0
  4 30  1  1
  4 31  1  0
  5 32  1  6
  5 33  1  0
  5 34  1  0
  6  7  2  0
  6  8  2  0
  6  9  1  0
  9 24  2  0
  9 10  1  0
 10 11  2  0
 10 35  1  0
 11 12  1  0
 11 36  1  0
 12 13  1  0
 12 23  2  0
 13 14  1  0
 13 37  1  1
 13 38  1  0
 14 15  1  0
 14 39  1  0
 15 16  2  0
 15 17  1  0
 17 18  1  6
 17 22  1  0
 17 19  1  0
 19 20  1  0
 19 40  1  6
 19 41  1  0
 20 21  1  0
 20 42  1  6
 20 43  1  0
 21 22  1  0
 21 44  1  6
 21 45  1  0
 23 24  1  0
 23 46  1  0
 24 47  1  0
M  END
$$$$
