ZINC000009806700
     RDKit          3D

 51 53  0  0  1  0  0  0  0  0999 V2000
    0.4309    1.2050   -0.2214 C   0  0  1  0  0  0  0  0  0  0  0  0
    0.3557   -0.2213   -0.1760 O   0  0  0  0  0  0  0  0  0  0  0  0
    0.9226   -0.8353    0.8957 C   0  0  0  0  0  0  0  0  0  0  0  0
    1.5335   -0.0801    1.8863 C   0  0  0  0  0  0  0  0  0  0  0  0
    2.1085   -0.7065    2.9749 C   0  0  0  0  0  0  0  0  0  0  0  0
    2.0761   -2.0850    3.0776 C   0  0  0  0  0  0  0  0  0  0  0  0
    2.8110   -2.8810    4.4672 S   0  0  1  0  0  0  0  0  0  0  0  0
    2.9978   -4.2405    4.0984 O   0  0  0  0  0  0  0  0  0  0  0  0
    3.8723   -2.0393    4.8968 O   0  0  0  0  0  0  0  0  0  0  0  0
    1.6886   -2.8768    5.6848 N   0  0  0  0  0  0  0  0  0  0  0  0
    1.4450   -1.7676    6.6250 C   0  0  1  0  0  0  0  0  0  0  0  0
    0.8162   -2.4364    7.8728 C   0  0  1  0  0  0  0  0  0  0  0  0
   -0.0674   -3.5352    7.2253 C   0  0  1  0  0  0  0  0  0  0  0  0
    0.7657   -3.9760    6.0032 C   0  0  1  0  0  0  0  0  0  0  0  0
    1.3353   -4.8729    6.2469 H   0  0  0  0  0  0  0  0  0  0  0  0
   -0.1587   -4.2535    4.8160 C   0  0  1  0  0  0  0  0  0  0  0  0
   -1.0225   -5.3953    5.1261 N   0  0  0  0  0  0  0  0  0  0  0  0
   -1.9928   -5.7599    4.2646 C   0  0  0  0  0  0  0  0  0  0  0  0
   -2.0930   -5.2006    3.1901 O   0  0  0  0  0  0  0  0  0  0  0  0
   -2.9352   -6.8399    4.6266 C   0  0  0  0  0  0  0  0  0  0  0  0
   -2.8987   -7.4035    5.9030 C   0  0  0  0  0  0  0  0  0  0  0  0
   -3.7812   -8.4107    6.2345 C   0  0  0  0  0  0  0  0  0  0  0  0
   -4.7008   -8.8626    5.3048 C   0  0  0  0  0  0  0  0  0  0  0  0
   -5.6615   -9.9635    5.6738 C   0  0  1  0  0  0  0  0  0  0  0  0
   -6.8269   -9.4053    6.2098 F   0  0  0  0  0  0  0  0  0  0  0  0
   -5.9822  -10.7049    4.5316 F   0  0  0  0  0  0  0  0  0  0  0  0
   -5.0672  -10.8024    6.6226 F   0  0  0  0  0  0  0  0  0  0  0  0
   -4.7427   -8.3079    4.0380 C   0  0  0  0  0  0  0  0  0  0  0  0
   -3.8693   -7.2965    3.6953 C   0  0  0  0  0  0  0  0  0  0  0  0
    1.4675   -2.8398    2.0920 C   0  0  0  0  0  0  0  0  0  0  0  0
    0.8863   -2.2179    1.0039 C   0  0  0  0  0  0  0  0  0  0  0  0
    1.4762    1.5138   -0.2260 H   0  0  0  0  0  0  0  0  0  0  0  0
   -0.0586    1.5661   -1.1259 H   0  0  0  0  0  0  0  0  0  0  0  0
   -0.0676    1.6231    0.6532 H   0  0  0  0  0  0  0  0  0  0  0  0
    1.5597    0.9966    1.8062 H   0  0  0  0  0  0  0  0  0  0  0  0
    2.5842   -0.1191    3.7463 H   0  0  0  0  0  0  0  0  0  0  0  0
    2.3838   -1.2804    6.8883 H   0  0  0  0  0  0  0  0  0  0  0  0
    0.7516   -1.0475    6.1906 H   0  0  0  0  0  0  0  0  0  0  0  0
    1.5841   -2.8769    8.5087 H   0  0  0  0  0  0  0  0  0  0  0  0
    0.2082   -1.7256    8.4324 H   0  0  0  0  0  0  0  0  0  0  0  0
   -0.2154   -4.3668    7.9143 H   0  0  0  0  0  0  0  0  0  0  0  0
   -1.0244   -3.1223    6.9064 H   0  0  0  0  0  0  0  0  0  0  0  0
   -0.7737   -3.3749    4.6214 H   0  0  0  0  0  0  0  0  0  0  0  0
    0.4406   -4.4801    3.9342 H   0  0  0  0  0  0  0  0  0  0  0  0
   -0.8961   -5.8890    5.9515 H   0  0  0  0  0  0  0  0  0  0  0  0
   -2.1808   -7.0521    6.6294 H   0  0  0  0  0  0  0  0  0  0  0  0
   -3.7540   -8.8476    7.2218 H   0  0  0  0  0  0  0  0  0  0  0  0
   -5.4632   -8.6650    3.3170 H   0  0  0  0  0  0  0  0  0  0  0  0
   -3.9032   -6.8641    2.7062 H   0  0  0  0  0  0  0  0  0  0  0  0
    1.4431   -3.9164    2.1746 H   0  0  0  0  0  0  0  0  0  0  0  0
    0.4110   -2.8079    0.2343 H   0  0  0  0  0  0  0  0  0  0  0  0
  1  2  1  0
  1 32  1  6
  1 33  1  0
  1 34  1  0
  2  3  1  0
  3 31  2  0
  3  4  1  0
  4  5  2  0
  4 35  1  0
  5  6  1  0
  5 36  1  0
  6  7  1  0
  6 30  2  0
  7  8  2  0
  7  9  2  0
  7 10  1  1
 10 14  1  0
 10 11  1  0
 11 12  1  0
 11 37  1  1
 11 38  1  0
 12 13  1  0
 12 39  1  1
 12 40  1  0
 13 14  1  0
 13 41  1  1
 13 42  1  0
 14 15  1  1
 14 16  1  0
 16 17  1  0
 16 43  1  6
 16 44  1  0
 17 18  1  0
 17 45  1  0
 18 19  2  0
 18 20  1  0
 20 29  2  0
 20 21  1  0
 21 22  2  0
 21 46  1  0
 22 23  1  0
 22 47  1  0
 23 24  1  0
 23 28  2  0
 24 25  1  1
 24 26  1  0
 24 27  1  0
 28 29  1  0
 28 48  1  0
 29 49  1  0
 30 31  1  0
 30 50  1  0
 31 51  1  0
M  END
$$$$
