ZINC000001368120
     RDKit          3D

 51 53  0  0  0  0  0  0  0  0999 V2000
   -0.0184    1.5028    0.0103 C   0  0  1  0  0  0  0  0  0  0  0  0
    0.0021   -0.0041    0.0020 C   0  0  0  0  0  0  0  0  0  0  0  0
    0.0057   -0.6887   -1.1989 C   0  0  0  0  0  0  0  0  0  0  0  0
    0.0245   -2.0709   -1.2065 C   0  0  0  0  0  0  0  0  0  0  0  0
    0.0400   -2.7685   -0.0132 C   0  0  0  0  0  0  0  0  0  0  0  0
    0.0633   -4.5303   -0.0229 S   0  0  1  0  0  0  0  0  0  0  0  0
   -0.4690   -4.9455    1.2275 O   0  0  0  0  0  0  0  0  0  0  0  0
   -0.4824   -4.9319   -1.2719 O   0  0  0  0  0  0  0  0  0  0  0  0
    1.6514   -4.9995   -0.0340 N   0  0  0  0  0  0  0  0  0  0  0  0
    2.3582   -5.1973   -1.2509 C   0  0  1  0  0  0  0  0  0  0  0  0
    2.1579   -6.6062   -1.8989 C   0  0  1  0  0  0  0  0  0  0  0  0
    2.1061   -7.6494   -0.7353 C   0  0  1  0  0  0  0  0  0  0  0  0
    3.0003   -7.3853    0.3371 N   0  0  0  0  0  0  0  0  0  0  0  0
    4.5849   -7.8628    0.2792 S   0  0  1  0  0  0  0  0  0  0  0  0
    5.0240   -7.9606    1.6271 O   0  0  0  0  0  0  0  0  0  0  0  0
    4.6441   -8.9465   -0.6380 O   0  0  0  0  0  0  0  0  0  0  0  0
    5.5006   -6.5448   -0.4481 C   0  0  0  0  0  0  0  0  0  0  0  0
    5.6730   -6.4970   -1.8188 C   0  0  0  0  0  0  0  0  0  0  0  0
    6.3914   -5.4629   -2.3894 C   0  0  0  0  0  0  0  0  0  0  0  0
    6.9370   -4.4765   -1.5893 C   0  0  0  0  0  0  0  0  0  0  0  0
    7.7206   -3.3495   -2.2113 C   0  0  1  0  0  0  0  0  0  0  0  0
    6.8552   -2.2943   -2.5194 F   0  0  0  0  0  0  0  0  0  0  0  0
    8.6946   -2.9059   -1.3103 F   0  0  0  0  0  0  0  0  0  0  0  0
    8.3393   -3.8020   -3.3816 F   0  0  0  0  0  0  0  0  0  0  0  0
    6.7634   -4.5236   -0.2187 C   0  0  0  0  0  0  0  0  0  0  0  0
    6.0418   -5.5555    0.3516 C   0  0  0  0  0  0  0  0  0  0  0  0
    2.4507   -6.6614    1.5122 C   0  0  1  0  0  0  0  0  0  0  0  0
    2.4020   -5.2261    1.2278 C   0  0  1  0  0  0  0  0  0  0  0  0
    0.0378   -2.0839    1.1877 C   0  0  0  0  0  0  0  0  0  0  0  0
    0.0229   -0.7016    1.1953 C   0  0  0  0  0  0  0  0  0  0  0  0
    1.0042    1.8801    0.0026 H   0  0  0  0  0  0  0  0  0  0  0  0
   -0.5455    1.8639   -0.8728 H   0  0  0  0  0  0  0  0  0  0  0  0
   -0.5286    1.8543    0.9071 H   0  0  0  0  0  0  0  0  0  0  0  0
   -0.0064   -0.1436   -2.1312 H   0  0  0  0  0  0  0  0  0  0  0  0
    0.0266   -2.6057   -2.1448 H   0  0  0  0  0  0  0  0  0  0  0  0
    2.0345   -4.4399   -1.9649 H   0  0  0  0  0  0  0  0  0  0  0  0
    3.4216   -5.0535   -1.0596 H   0  0  0  0  0  0  0  0  0  0  0  0
    1.2226   -6.6276   -2.4582 H   0  0  0  0  0  0  0  0  0  0  0  0
    2.9930   -6.8315   -2.5622 H   0  0  0  0  0  0  0  0  0  0  0  0
    1.0907   -7.6747   -0.3396 H   0  0  0  0  0  0  0  0  0  0  0  0
    2.3377   -8.6332   -1.1434 H   0  0  0  0  0  0  0  0  0  0  0  0
    5.2468   -7.2677   -2.4439 H   0  0  0  0  0  0  0  0  0  0  0  0
    6.5268   -5.4259   -3.4602 H   0  0  0  0  0  0  0  0  0  0  0  0
    7.1893   -3.7527    0.4064 H   0  0  0  0  0  0  0  0  0  0  0  0
    5.9061   -5.5923    1.4224 H   0  0  0  0  0  0  0  0  0  0  0  0
    1.4452   -7.0247    1.7244 H   0  0  0  0  0  0  0  0  0  0  0  0
    3.0896   -6.8369    2.3777 H   0  0  0  0  0  0  0  0  0  0  0  0
    3.4169   -4.8420    1.1248 H   0  0  0  0  0  0  0  0  0  0  0  0
    1.9010   -4.7107    2.0473 H   0  0  0  0  0  0  0  0  0  0  0  0
    0.0503   -2.6289    2.1200 H   0  0  0  0  0  0  0  0  0  0  0  0
    0.0211   -0.1667    2.1335 H   0  0  0  0  0  0  0  0  0  0  0  0
  1  2  1  0
  1 31  1  6
  1 32  1  0
  1 33  1  0
  2 30  2  0
  2  3  1  0
  3  4  2  0
  3 34  1  0
  4  5  1  0
  4 35  1  0
  5  6  1  0
  5 29  2  0
  6  7  2  0
  6  8  2  0
  6  9  1  6
  9 28  1  0
  9 10  1  0
 10 11  1  0
 10 36  1  6
 10 37  1  0
 11 12  1  0
 11 38  1  6
 11 39  1  0
 12 13  1  0
 12 40  1  1
 12 41  1  0
 14 13  1  1
 13 27  1  0
 14 15  2  0
 14 16  2  0
 14 17  1  0
 17 26  2  0
 17 18  1  0
 18 19  2  0
 18 42  1  0
 19 20  1  0
 19 43  1  0
 20 21  1  0
 20 25  2  0
 21 22  1  6
 21 23  1  0
 21 24  1  0
 25 26  1  0
 25 44  1  0
 26 45  1  0
 27 28  1  0
 27 46  1  1
 27 47  1  0
 28 48  1  6
 28 49  1  0
 29 30  1  0
 29 50  1  0
 30 51  1  0
M  END
$$$$
