ZINC000016084487
     RDKit          3D

 54 56  0  0  1  0  0  0  0  0999 V2000
    1.4803   -3.4426    2.3165 C   0  0  1  0  0  0  0  0  0  0  0  0
    0.7576   -2.6058    1.3753 O   0  0  0  0  0  0  0  0  0  0  0  0
   -0.4206   -3.0684    0.9286 C   0  0  0  0  0  0  0  0  0  0  0  0
   -0.8734   -4.0968    1.3726 O   0  0  0  0  0  0  0  0  0  0  0  0
   -1.1786   -2.3051   -0.1268 C   0  0  1  0  0  0  0  0  0  0  0  0
   -2.6469   -2.7348   -0.1114 C   0  0  1  0  0  0  0  0  0  0  0  0
   -3.1685   -2.2741   -0.9503 H   0  0  0  0  0  0  0  0  0  0  0  0
   -2.7317   -4.2361   -0.2310 C   0  0  0  0  0  0  0  0  0  0  0  0
   -2.4169   -4.8048   -1.4579 C   0  0  0  0  0  0  0  0  0  0  0  0
   -2.4652   -6.1761   -1.6299 C   0  0  0  0  0  0  0  0  0  0  0  0
   -2.1564   -6.7261   -2.8347 O   0  0  0  0  0  0  0  0  0  0  0  0
   -1.7893   -5.8273   -3.8832 C   0  0  1  0  0  0  0  0  0  0  0  0
   -2.8314   -6.9896   -0.5618 C   0  0  0  0  0  0  0  0  0  0  0  0
   -2.8774   -8.3401   -0.7157 O   0  0  0  0  0  0  0  0  0  0  0  0
   -3.2618   -9.1103    0.4249 C   0  0  1  0  0  0  0  0  0  0  0  0
   -3.1477   -6.4181    0.6566 C   0  0  0  0  0  0  0  0  0  0  0  0
   -3.1041   -5.0391    0.8243 C   0  0  0  0  0  0  0  0  0  0  0  0
   -3.4888   -4.4895    2.1729 C   0  0  1  0  0  0  0  0  0  0  0  0
   -2.9465   -3.0732    2.3579 C   0  0  1  0  0  0  0  0  0  0  0  0
   -3.2682   -2.3042    1.1455 N   0  0  0  0  0  0  0  0  0  0  0  0
   -4.2911   -1.0029    1.1972 S   0  0  1  0  0  0  0  0  0  0  0  0
   -4.8979   -0.9183   -0.0849 O   0  0  0  0  0  0  0  0  0  0  0  0
   -5.0343   -1.1243    2.4023 O   0  0  0  0  0  0  0  0  0  0  0  0
   -3.2929    0.4386    1.3713 C   0  0  0  0  0  0  0  0  0  0  0  0
   -2.8695    0.8389    2.6249 C   0  0  0  0  0  0  0  0  0  0  0  0
   -2.0864    1.9697    2.7615 C   0  0  0  0  0  0  0  0  0  0  0  0
   -1.7262    2.7001    1.6445 C   0  0  0  0  0  0  0  0  0  0  0  0
   -0.8729    3.9333    1.7935 C   0  0  1  0  0  0  0  0  0  0  0  0
    0.4778    3.5788    1.7086 F   0  0  0  0  0  0  0  0  0  0  0  0
   -1.1819    4.8402    0.7741 F   0  0  0  0  0  0  0  0  0  0  0  0
   -1.1223    4.5257    3.0361 F   0  0  0  0  0  0  0  0  0  0  0  0
   -2.1485    2.2991    0.3908 C   0  0  0  0  0  0  0  0  0  0  0  0
   -2.9284    1.1661    0.2538 C   0  0  0  0  0  0  0  0  0  0  0  0
    2.4504   -2.9942    2.5309 H   0  0  0  0  0  0  0  0  0  0  0  0
    0.9078   -3.5289    3.2400 H   0  0  0  0  0  0  0  0  0  0  0  0
    1.6253   -4.4331    1.8850 H   0  0  0  0  0  0  0  0  0  0  0  0
   -1.1105   -1.2367    0.0782 H   0  0  0  0  0  0  0  0  0  0  0  0
   -0.7488   -2.5152   -1.1062 H   0  0  0  0  0  0  0  0  0  0  0  0
   -2.1324   -4.1710   -2.2848 H   0  0  0  0  0  0  0  0  0  0  0  0
   -1.5686   -6.3946   -4.7874 H   0  0  0  0  0  0  0  0  0  0  0  0
   -2.6127   -5.1399   -4.0774 H   0  0  0  0  0  0  0  0  0  0  0  0
   -0.9066   -5.2618   -3.5846 H   0  0  0  0  0  0  0  0  0  0  0  0
   -2.5579   -8.9320    1.2377 H   0  0  0  0  0  0  0  0  0  0  0  0
   -4.2631   -8.8172    0.7405 H   0  0  0  0  0  0  0  0  0  0  0  0
   -3.2577  -10.1692    0.1664 H   0  0  0  0  0  0  0  0  0  0  0  0
   -3.4318   -7.0491    1.4858 H   0  0  0  0  0  0  0  0  0  0  0  0
   -4.5755   -4.4709    2.2557 H   0  0  0  0  0  0  0  0  0  0  0  0
   -3.0816   -5.1338    2.9520 H   0  0  0  0  0  0  0  0  0  0  0  0
   -3.4162   -2.6088    3.2250 H   0  0  0  0  0  0  0  0  0  0  0  0
   -1.8660   -3.1072    2.4971 H   0  0  0  0  0  0  0  0  0  0  0  0
   -3.1509    0.2682    3.4976 H   0  0  0  0  0  0  0  0  0  0  0  0
   -1.7562    2.2828    3.7410 H   0  0  0  0  0  0  0  0  0  0  0  0
   -1.8668    2.8696   -0.4819 H   0  0  0  0  0  0  0  0  0  0  0  0
   -3.2583    0.8528   -0.7257 H   0  0  0  0  0  0  0  0  0  0  0  0
  1  2  1  0
  1 34  1  1
  1 35  1  0
  1 36  1  0
  2  3  1  0
  3  4  2  0
  3  5  1  0
  5  6  1  0
  5 37  1  1
  5 38  1  0
  6  7  1  6
  6 20  1  0
  6  8  1  0
  8 17  2  0
  8  9  1  0
  9 10  2  0
  9 39  1  0
 10 11  1  0
 10 13  1  0
 11 12  1  0
 12 40  1  6
 12 41  1  0
 12 42  1  0
 13 14  1  0
 13 16  2  0
 14 15  1  0
 15 43  1  1
 15 44  1  0
 15 45  1  0
 16 17  1  0
 16 46  1  0
 17 18  1  0
 18 19  1  0
 18 47  1  6
 18 48  1  0
 19 20  1  0
 19 49  1  1
 19 50  1  0
 21 20  1  6
 21 22  2  0
 21 23  2  0
 21 24  1  0
 24 33  2  0
 24 25  1  0
 25 26  2  0
 25 51  1  0
 26 27  1  0
 26 52  1  0
 27 28  1  0
 27 32  2  0
 28 29  1  1
 28 30  1  0
 28 31  1  0
 32 33  1  0
 32 53  1  0
 33 54  1  0
M  END
$$$$
