ZINC000034800100
     RDKit          3D

 32 33  0  0  0  0  0  0  0  0999 V2000
    0.0021   -0.0041    0.0020 O   0  0  0  0  0  0  0  0  0  0  0  0
   -0.0172    1.4168    0.0098 S   0  0  1  0  0  0  0  0  0  0  0  0
    1.1617    2.2101    0.0028 O   0  0  0  0  0  0  0  0  0  0  0  0
   -0.9567    1.9094   -1.3970 C   0  0  0  0  0  0  0  0  0  0  0  0
   -1.8848    1.0442   -1.9458 C   0  0  0  0  0  0  0  0  0  0  0  0
   -2.6219    1.4307   -3.0496 C   0  0  0  0  0  0  0  0  0  0  0  0
   -2.4313    2.6825   -3.6042 C   0  0  0  0  0  0  0  0  0  0  0  0
   -3.2345    3.1036   -4.8078 C   0  0  1  0  0  0  0  0  0  0  0  0
   -4.4138    3.7273   -4.3864 F   0  0  0  0  0  0  0  0  0  0  0  0
   -2.4843    3.9973   -5.5796 F   0  0  0  0  0  0  0  0  0  0  0  0
   -3.5510    1.9771   -5.5746 F   0  0  0  0  0  0  0  0  0  0  0  0
   -1.5042    3.5481   -3.0546 C   0  0  0  0  0  0  0  0  0  0  0  0
   -0.7699    3.1631   -1.9485 C   0  0  0  0  0  0  0  0  0  0  0  0
   -0.8748    1.8654    1.3536 N   0  0  0  0  0  0  0  0  0  0  0  0
   -0.6844    3.1904    1.9630 C   0  0  1  0  0  0  0  0  0  0  0  0
   -0.4252    3.0042    3.4617 C   0  0  1  0  0  0  0  0  0  0  0  0
   -1.5074    2.2012    4.0466 N   0  0  0  0  0  0  0  0  0  0  0  0
   -1.5419    0.8515    3.4679 C   0  0  1  0  0  0  0  0  0  0  0  0
   -1.8513    0.9517    1.9657 C   0  0  1  0  0  0  0  0  0  0  0  0
   -2.0336    0.0662   -1.5125 H   0  0  0  0  0  0  0  0  0  0  0  0
   -3.3464    0.7545   -3.4788 H   0  0  0  0  0  0  0  0  0  0  0  0
   -1.3556    4.5263   -3.4877 H   0  0  0  0  0  0  0  0  0  0  0  0
   -0.0456    3.8394   -1.5191 H   0  0  0  0  0  0  0  0  0  0  0  0
    0.1702    3.6860    1.5023 H   0  0  0  0  0  0  0  0  0  0  0  0
   -1.5818    3.7922    1.8186 H   0  0  0  0  0  0  0  0  0  0  0  0
    0.5262    2.4921    3.6054 H   0  0  0  0  0  0  0  0  0  0  0  0
   -0.3913    3.9788    3.9488 H   0  0  0  0  0  0  0  0  0  0  0  0
   -1.4259    2.1618    5.0515 H   0  0  0  0  0  0  0  0  0  0  0  0
   -0.5749    0.3693    3.6115 H   0  0  0  0  0  0  0  0  0  0  0  0
   -2.3179    0.2647    3.9594 H   0  0  0  0  0  0  0  0  0  0  0  0
   -2.8610    1.3376    1.8248 H   0  0  0  0  0  0  0  0  0  0  0  0
   -1.7657   -0.0336    1.5076 H   0  0  0  0  0  0  0  0  0  0  0  0
  1  2  2  0
  2  3  2  0
  2  4  1  0
  2 14  1  1
  4 13  2  0
  4  5  1  0
  5  6  2  0
  5 20  1  0
  6  7  1  0
  6 21  1  0
  7  8  1  0
  7 12  2  0
  8  9  1  1
  8 10  1  0
  8 11  1  0
 12 13  1  0
 12 22  1  0
 13 23  1  0
 14 19  1  0
 14 15  1  0
 15 16  1  0
 15 24  1  6
 15 25  1  0
 16 17  1  0
 16 26  1  6
 16 27  1  0
 17 18  1  0
 17 28  1  0
 18 19  1  0
 18 29  1  6
 18 30  1  0
 19 31  1  1
 19 32  1  0
M  END
$$$$
