ZINC000408610992
     RDKit          3D

 62 64  0  0  1  0  0  0  0  0999 V2000
   -0.0187    1.5258    0.0104 C   0  0  1  0  0  0  0  0  0  0  0  0
    0.0021   -0.0041    0.0020 C   0  0  2  0  0  0  0  0  0  0  0  0
   -1.0205   -0.3814    0.0098 H   0  0  0  0  0  0  0  0  0  0  0  0
    0.7421   -0.5109    1.2415 C   0  0  1  0  0  0  0  0  0  0  0  0
    0.6554   -2.0374    1.2986 C   0  0  1  0  0  0  0  0  0  0  0  0
    1.3843   -2.5366    2.5195 C   0  0  0  0  0  0  0  0  0  0  0  0
    2.7305   -2.8414    2.4443 C   0  0  0  0  0  0  0  0  0  0  0  0
    3.3991   -3.2993    3.5642 C   0  0  0  0  0  0  0  0  0  0  0  0
    2.7216   -3.4520    4.7594 C   0  0  0  0  0  0  0  0  0  0  0  0
    1.3755   -3.1464    4.8348 C   0  0  0  0  0  0  0  0  0  0  0  0
    0.7079   -2.6844    3.7160 C   0  0  0  0  0  0  0  0  0  0  0  0
    0.6878   -0.4765   -1.2033 N   0  0  0  0  0  0  0  0  0  0  0  0
    0.0062   -0.6081   -2.3585 C   0  0  0  0  0  0  0  0  0  0  0  0
   -1.1748   -0.3355   -2.4003 O   0  0  0  0  0  0  0  0  0  0  0  0
    0.7116   -1.0941   -3.5984 C   0  0  1  0  0  0  0  0  0  0  0  0
   -0.2397   -1.1502   -4.7112 N   0  0  0  0  0  0  0  0  0  0  0  0
   -0.5094    0.0508   -5.5055 C   0  0  1  0  0  0  0  0  0  0  0  0
    0.5452    0.1819   -6.6061 C   0  0  1  0  0  0  0  0  0  0  0  0
    0.2678    1.4174   -7.4232 C   0  0  0  0  0  0  0  0  0  0  0  0
   -0.5539    1.3424   -8.5323 C   0  0  0  0  0  0  0  0  0  0  0  0
   -0.8084    2.4757   -9.2818 C   0  0  0  0  0  0  0  0  0  0  0  0
   -0.2417    3.6841   -8.9219 C   0  0  0  0  0  0  0  0  0  0  0  0
    0.5793    3.7593   -7.8122 C   0  0  0  0  0  0  0  0  0  0  0  0
    0.8304    2.6268   -7.0603 C   0  0  0  0  0  0  0  0  0  0  0  0
   -1.0101   -2.5712   -5.0711 S   0  0  1  0  0  0  0  0  0  0  0  0
   -1.2584   -2.5499   -6.4701 O   0  0  0  0  0  0  0  0  0  0  0  0
   -0.2722   -3.6016   -4.4284 O   0  0  0  0  0  0  0  0  0  0  0  0
   -2.5864   -2.5236   -4.2852 C   0  0  0  0  0  0  0  0  0  0  0  0
   -2.7309   -3.0036   -2.9969 C   0  0  0  0  0  0  0  0  0  0  0  0
   -3.9671   -2.9665   -2.3799 C   0  0  0  0  0  0  0  0  0  0  0  0
   -5.0600   -2.4488   -3.0519 C   0  0  0  0  0  0  0  0  0  0  0  0
   -6.6130   -2.4013   -2.2774 Cl  0  0  0  0  0  0  0  0  0  0  0  0
   -4.9148   -1.9686   -4.3412 C   0  0  0  0  0  0  0  0  0  0  0  0
   -3.6769   -2.0010   -4.9551 C   0  0  0  0  0  0  0  0  0  0  0  0
    1.0039    1.9031    0.0027 H   0  0  0  0  0  0  0  0  0  0  0  0
   -0.5459    1.8868   -0.8726 H   0  0  0  0  0  0  0  0  0  0  0  0
   -0.5289    1.8773    0.9072 H   0  0  0  0  0  0  0  0  0  0  0  0
    1.7879   -0.2080    1.1895 H   0  0  0  0  0  0  0  0  0  0  0  0
    0.2852   -0.0874    2.1360 H   0  0  0  0  0  0  0  0  0  0  0  0
   -0.3904   -2.3402    1.3506 H   0  0  0  0  0  0  0  0  0  0  0  0
    1.1123   -2.4609    0.4042 H   0  0  0  0  0  0  0  0  0  0  0  0
    3.2599   -2.7220    1.5106 H   0  0  0  0  0  0  0  0  0  0  0  0
    4.4507   -3.5381    3.5053 H   0  0  0  0  0  0  0  0  0  0  0  0
    3.2437   -3.8105    5.6342 H   0  0  0  0  0  0  0  0  0  0  0  0
    0.8461   -3.2660    5.7685 H   0  0  0  0  0  0  0  0  0  0  0  0
   -0.3437   -2.4456    3.7749 H   0  0  0  0  0  0  0  0  0  0  0  0
    1.6324   -0.6946   -1.1699 H   0  0  0  0  0  0  0  0  0  0  0  0
    1.5220   -0.4092   -3.8474 H   0  0  0  0  0  0  0  0  0  0  0  0
    1.1190   -2.0889   -3.4183 H   0  0  0  0  0  0  0  0  0  0  0  0
   -1.4983   -0.0269   -5.9573 H   0  0  0  0  0  0  0  0  0  0  0  0
   -0.4726    0.9288   -4.8605 H   0  0  0  0  0  0  0  0  0  0  0  0
    1.5341    0.2596   -6.1543 H   0  0  0  0  0  0  0  0  0  0  0  0
    0.5084   -0.6960   -7.2510 H   0  0  0  0  0  0  0  0  0  0  0  0
   -0.9967    0.3984   -8.8134 H   0  0  0  0  0  0  0  0  0  0  0  0
   -1.4498    2.4170  -10.1487 H   0  0  0  0  0  0  0  0  0  0  0  0
   -0.4400    4.5694   -9.5079 H   0  0  0  0  0  0  0  0  0  0  0  0
    1.0224    4.7033   -7.5313 H   0  0  0  0  0  0  0  0  0  0  0  0
    1.4717    2.6855   -6.1933 H   0  0  0  0  0  0  0  0  0  0  0  0
   -1.8777   -3.4080   -2.4725 H   0  0  0  0  0  0  0  0  0  0  0  0
   -4.0799   -3.3418   -1.3735 H   0  0  0  0  0  0  0  0  0  0  0  0
   -5.7677   -1.5647   -4.8664 H   0  0  0  0  0  0  0  0  0  0  0  0
   -3.5633   -1.6259   -5.9615 H   0  0  0  0  0  0  0  0  0  0  0  0
  1  2  1  0
  1 35  1  6
  1 36  1  0
  1 37  1  0
  2  3  1  1
  2  4  1  0
  2 12  1  0
  4  5  1  0
  4 38  1  6
  4 39  1  0
  5  6  1  0
  5 40  1  1
  5 41  1  0
  6 11  2  0
  6  7  1  0
  7  8  2  0
  7 42  1  0
  8  9  1  0
  8 43  1  0
  9 10  2  0
  9 44  1  0
 10 11  1  0
 10 45  1  0
 11 46  1  0
 12 13  1  0
 12 47  1  0
 13 14  2  0
 13 15  1  0
 15 16  1  0
 15 48  1  6
 15 49  1  0
 16 17  1  0
 25 16  1  1
 17 18  1  0
 17 50  1  6
 17 51  1  0
 18 19  1  0
 18 52  1  1
 18 53  1  0
 19 24  2  0
 19 20  1  0
 20 21  2  0
 20 54  1  0
 21 22  1  0
 21 55  1  0
 22 23  2  0
 22 56  1  0
 23 24  1  0
 23 57  1  0
 24 58  1  0
 25 26  2  0
 25 27  2  0
 25 28  1  0
 28 34  2  0
 28 29  1  0
 29 30  2  0
 29 59  1  0
 30 31  1  0
 30 60  1  0
 31 32  1  0
 31 33  2  0
 33 34  1  0
 33 61  1  0
 34 62  1  0
M  END
$$$$
