ZINC000408603647
     RDKit          3D

 66 68  0  0  1  0  0  0  0  0999 V2000
   -9.0402   -6.0417    4.2274 C   0  0  1  0  0  0  0  0  0  0  0  0
   -9.2610   -4.7556    3.6448 O   0  0  0  0  0  0  0  0  0  0  0  0
   -8.3028   -4.2872    2.8026 C   0  0  0  0  0  0  0  0  0  0  0  0
   -7.1763   -5.0520    2.5378 C   0  0  0  0  0  0  0  0  0  0  0  0
   -6.2038   -4.5737    1.6807 C   0  0  0  0  0  0  0  0  0  0  0  0
   -6.3526   -3.3338    1.0876 C   0  0  0  0  0  0  0  0  0  0  0  0
   -5.1103   -2.7265   -0.0044 S   0  0  1  0  0  0  0  0  0  0  0  0
   -5.1484   -1.3093    0.0930 O   0  0  0  0  0  0  0  0  0  0  0  0
   -3.9411   -3.4921    0.2525 O   0  0  0  0  0  0  0  0  0  0  0  0
   -5.5860   -3.1022   -1.5454 N   0  0  0  0  0  0  0  0  0  0  0  0
   -5.2904   -4.4250   -2.1013 C   0  0  1  0  0  0  0  0  0  0  0  0
   -6.4771   -5.3316   -1.8991 C   0  0  0  0  0  0  0  0  0  0  0  0
   -7.4719   -4.9139   -1.3452 O   0  0  0  0  0  0  0  0  0  0  0  0
   -6.4329   -6.6066   -2.3338 N   0  0  0  0  0  0  0  0  0  0  0  0
   -7.5865   -7.4879   -2.1372 C   0  0  2  0  0  0  0  0  0  0  0  0
   -8.5057   -6.9094   -2.2302 H   0  0  0  0  0  0  0  0  0  0  0  0
   -7.5175   -8.1152   -0.7434 C   0  0  1  0  0  0  0  0  0  0  0  0
   -7.5702   -8.5930   -3.1952 C   0  0  1  0  0  0  0  0  0  0  0  0
   -7.7646   -7.9750   -4.5813 C   0  0  1  0  0  0  0  0  0  0  0  0
   -7.7485   -9.0635   -5.6234 C   0  0  0  0  0  0  0  0  0  0  0  0
   -6.5548   -9.4428   -6.2083 C   0  0  0  0  0  0  0  0  0  0  0  0
   -6.5401  -10.4413   -7.1642 C   0  0  0  0  0  0  0  0  0  0  0  0
   -7.7190  -11.0607   -7.5348 C   0  0  0  0  0  0  0  0  0  0  0  0
   -8.9126  -10.6820   -6.9493 C   0  0  0  0  0  0  0  0  0  0  0  0
   -8.9267   -9.6865   -5.9903 C   0  0  0  0  0  0  0  0  0  0  0  0
   -6.3025   -2.1118   -2.3529 C   0  0  1  0  0  0  0  0  0  0  0  0
   -5.3245   -1.3823   -3.2373 C   0  0  0  0  0  0  0  0  0  0  0  0
   -4.7921   -0.1736   -2.8293 C   0  0  0  0  0  0  0  0  0  0  0  0
   -3.8950    0.4956   -3.6406 C   0  0  0  0  0  0  0  0  0  0  0  0
   -3.5299   -0.0441   -4.8598 C   0  0  0  0  0  0  0  0  0  0  0  0
   -4.0616   -1.2533   -5.2674 C   0  0  0  0  0  0  0  0  0  0  0  0
   -4.9555   -1.9245   -4.4542 C   0  0  0  0  0  0  0  0  0  0  0  0
   -7.4750   -2.5696    1.3497 C   0  0  0  0  0  0  0  0  0  0  0  0
   -8.4525   -3.0456    2.2016 C   0  0  0  0  0  0  0  0  0  0  0  0
   -9.6756   -2.2124    2.4863 C   0  0  1  0  0  0  0  0  0  0  0  0
   -9.8782   -6.2950    4.8769 H   0  0  0  0  0  0  0  0  0  0  0  0
   -8.9538   -6.7882    3.4379 H   0  0  0  0  0  0  0  0  0  0  0  0
   -8.1204   -6.0228    4.8118 H   0  0  0  0  0  0  0  0  0  0  0  0
   -7.0593   -6.0204    3.0014 H   0  0  0  0  0  0  0  0  0  0  0  0
   -5.3265   -5.1688    1.4742 H   0  0  0  0  0  0  0  0  0  0  0  0
   -5.0810   -4.3328   -3.1671 H   0  0  0  0  0  0  0  0  0  0  0  0
   -4.4213   -4.8458   -1.5955 H   0  0  0  0  0  0  0  0  0  0  0  0
   -5.6373   -6.9407   -2.7768 H   0  0  0  0  0  0  0  0  0  0  0  0
   -6.5983   -8.6936   -0.6505 H   0  0  0  0  0  0  0  0  0  0  0  0
   -7.5291   -7.3279    0.0103 H   0  0  0  0  0  0  0  0  0  0  0  0
   -8.3758   -8.7709   -0.5971 H   0  0  0  0  0  0  0  0  0  0  0  0
   -6.6139   -9.1148   -3.1609 H   0  0  0  0  0  0  0  0  0  0  0  0
   -8.3766   -9.2988   -2.9958 H   0  0  0  0  0  0  0  0  0  0  0  0
   -8.7210   -7.4532   -4.6156 H   0  0  0  0  0  0  0  0  0  0  0  0
   -6.9582   -7.2691   -4.7807 H   0  0  0  0  0  0  0  0  0  0  0  0
   -5.6338   -8.9589   -5.9186 H   0  0  0  0  0  0  0  0  0  0  0  0
   -5.6076  -10.7372   -7.6216 H   0  0  0  0  0  0  0  0  0  0  0  0
   -7.7076  -11.8403   -8.2822 H   0  0  0  0  0  0  0  0  0  0  0  0
   -9.8337  -11.1657   -7.2392 H   0  0  0  0  0  0  0  0  0  0  0  0
   -9.8592   -9.3906   -5.5328 H   0  0  0  0  0  0  0  0  0  0  0  0
   -7.0455   -2.6158   -2.9710 H   0  0  0  0  0  0  0  0  0  0  0  0
   -6.8001   -1.3986   -1.6957 H   0  0  0  0  0  0  0  0  0  0  0  0
   -5.0774    0.2481   -1.8768 H   0  0  0  0  0  0  0  0  0  0  0  0
   -3.4796    1.4403   -3.3221 H   0  0  0  0  0  0  0  0  0  0  0  0
   -2.8296    0.4791   -5.4939 H   0  0  0  0  0  0  0  0  0  0  0  0
   -3.7766   -1.6748   -6.2200 H   0  0  0  0  0  0  0  0  0  0  0  0
   -5.3709   -2.8692   -4.7726 H   0  0  0  0  0  0  0  0  0  0  0  0
   -7.5890   -1.6015    0.8848 H   0  0  0  0  0  0  0  0  0  0  0  0
  -10.4524   -2.4471    1.7586 H   0  0  0  0  0  0  0  0  0  0  0  0
  -10.0395   -2.4324    3.4899 H   0  0  0  0  0  0  0  0  0  0  0  0
   -9.4195   -1.1553    2.4162 H   0  0  0  0  0  0  0  0  0  0  0  0
  1  2  1  0
  1 36  1  1
  1 37  1  0
  1 38  1  0
  2  3  1  0
  3 34  2  0
  3  4  1  0
  4  5  2  0
  4 39  1  0
  5  6  1  0
  5 40  1  0
  6  7  1  0
  6 33  2  0
  7  8  2  0
  7  9  2  0
  7 10  1  6
 10 11  1  0
 10 26  1  0
 11 12  1  0
 11 41  1  6
 11 42  1  0
 12 13  2  0
 12 14  1  0
 14 15  1  0
 14 43  1  0
 15 16  1  1
 15 17  1  0
 15 18  1  0
 17 44  1  6
 17 45  1  0
 17 46  1  0
 18 19  1  0
 18 47  1  6
 18 48  1  0
 19 20  1  0
 19 49  1  1
 19 50  1  0
 20 25  2  0
 20 21  1  0
 21 22  2  0
 21 51  1  0
 22 23  1  0
 22 52  1  0
 23 24  2  0
 23 53  1  0
 24 25  1  0
 24 54  1  0
 25 55  1  0
 26 27  1  0
 26 56  1  6
 26 57  1  0
 27 32  2  0
 27 28  1  0
 28 29  2  0
 28 58  1  0
 29 30  1  0
 29 59  1  0
 30 31  2  0
 30 60  1  0
 31 32  1  0
 31 61  1  0
 32 62  1  0
 33 34  1  0
 33 63  1  0
 34 35  1  0
 35 64  1  6
 35 65  1  0
 35 66  1  0
M  END
$$$$
