ZINC000001703577
     RDKit          3D

 53 54  0  0  0  0  0  0  0  0999 V2000
   -0.0592    1.5402    0.0344 C   0  0  1  0  0  0  0  0  0  0  0  0
   -0.0293    0.0106    0.0196 C   0  0  1  0  0  0  0  0  0  0  0  0
    0.6875   -0.4733   -1.2426 C   0  0  1  0  0  0  0  0  0  0  0  0
    0.7161   -1.9379   -1.2568 N   0  0  0  0  0  0  0  0  0  0  0  0
   -0.4253   -2.6877   -1.7872 C   0  0  1  0  0  0  0  0  0  0  0  0
   -0.2898   -2.8165   -3.3057 C   0  0  1  0  0  0  0  0  0  0  0  0
   -1.4818   -3.5996   -3.8596 C   0  0  1  0  0  0  0  0  0  0  0  0
    2.0386   -2.7460   -0.6734 S   0  0  1  0  0  0  0  0  0  0  0  0
    2.0354   -4.0232   -1.2962 O   0  0  0  0  0  0  0  0  0  0  0  0
    3.1315   -1.8419   -0.7598 O   0  0  0  0  0  0  0  0  0  0  0  0
    1.7614   -3.0289    1.0435 C   0  0  0  0  0  0  0  0  0  0  0  0
    2.1734   -2.0913    1.9726 C   0  0  0  0  0  0  0  0  0  0  0  0
    1.9580   -2.3103    3.3191 C   0  0  0  0  0  0  0  0  0  0  0  0
    1.3266   -3.4734    3.7395 C   0  0  0  0  0  0  0  0  0  0  0  0
    1.1065   -3.6982    5.1033 N   0  0  0  0  0  0  0  0  0  0  0  0
    2.0104   -3.2774    6.0101 C   0  0  0  0  0  0  0  0  0  0  0  0
    2.9742   -2.6298    5.6519 O   0  0  0  0  0  0  0  0  0  0  0  0
    1.8455   -3.5746    7.3130 O   0  0  0  0  0  0  0  0  0  0  0  0
    2.8581   -3.0888    8.2332 C   0  0  1  0  0  0  0  0  0  0  0  0
    2.4192   -1.7425    8.8608 C   0  0  1  0  0  0  0  0  0  0  0  0
    3.2358   -1.6962   10.1762 C   0  0  1  0  0  0  0  0  0  0  0  0
    3.2340   -3.1563   10.6741 C   0  0  1  0  0  0  0  0  0  0  0  0
    2.9939   -4.0417    9.4388 C   0  0  1  0  0  0  0  0  0  0  0  0
    0.9137   -4.4129    2.8040 C   0  0  0  0  0  0  0  0  0  0  0  0
    1.1274   -4.1856    1.4586 C   0  0  0  0  0  0  0  0  0  0  0  0
    0.9612    1.9236    0.0264 H   0  0  0  0  0  0  0  0  0  0  0  0
   -0.5901    1.9018   -0.8462 H   0  0  0  0  0  0  0  0  0  0  0  0
   -0.5698    1.8849    0.9336 H   0  0  0  0  0  0  0  0  0  0  0  0
    0.5017   -0.3510    0.9001 H   0  0  0  0  0  0  0  0  0  0  0  0
   -1.0496   -0.3728    0.0276 H   0  0  0  0  0  0  0  0  0  0  0  0
    0.1565   -0.1117   -2.1232 H   0  0  0  0  0  0  0  0  0  0  0  0
    1.7078   -0.0899   -1.2506 H   0  0  0  0  0  0  0  0  0  0  0  0
   -0.4475   -3.6810   -1.3389 H   0  0  0  0  0  0  0  0  0  0  0  0
   -1.3490   -2.1606   -1.5482 H   0  0  0  0  0  0  0  0  0  0  0  0
   -0.2676   -1.8232   -3.7540 H   0  0  0  0  0  0  0  0  0  0  0  0
    0.6339   -3.3436   -3.5446 H   0  0  0  0  0  0  0  0  0  0  0  0
   -1.3852   -3.6913   -4.9414 H   0  0  0  0  0  0  0  0  0  0  0  0
   -1.5039   -4.5928   -3.4113 H   0  0  0  0  0  0  0  0  0  0  0  0
   -2.4054   -3.0724   -3.6207 H   0  0  0  0  0  0  0  0  0  0  0  0
    2.6644   -1.1868    1.6449 H   0  0  0  0  0  0  0  0  0  0  0  0
    2.2806   -1.5779    4.0443 H   0  0  0  0  0  0  0  0  0  0  0  0
    0.3033   -4.1568    5.3958 H   0  0  0  0  0  0  0  0  0  0  0  0
    3.8152   -2.9802    7.7231 H   0  0  0  0  0  0  0  0  0  0  0  0
    2.6855   -0.9086    8.2114 H   0  0  0  0  0  0  0  0  0  0  0  0
    1.3495   -1.7443    9.0701 H   0  0  0  0  0  0  0  0  0  0  0  0
    4.2544   -1.3609    9.9812 H   0  0  0  0  0  0  0  0  0  0  0  0
    2.7512   -1.0446   10.9033 H   0  0  0  0  0  0  0  0  0  0  0  0
    4.1963   -3.3981   11.1254 H   0  0  0  0  0  0  0  0  0  0  0  0
    2.4336   -3.3024   11.3995 H   0  0  0  0  0  0  0  0  0  0  0  0
    2.0770   -4.6176    9.5646 H   0  0  0  0  0  0  0  0  0  0  0  0
    3.8396   -4.7132    9.2906 H   0  0  0  0  0  0  0  0  0  0  0  0
    0.4224   -5.3185    3.1279 H   0  0  0  0  0  0  0  0  0  0  0  0
    0.8061   -4.9157    0.7304 H   0  0  0  0  0  0  0  0  0  0  0  0
  1  2  1  0
  1 26  1  1
  1 27  1  0
  1 28  1  0
  2  3  1  0
  2 29  1  1
  2 30  1  0
  3  4  1  0
  3 31  1  6
  3 32  1  0
  4  5  1  0
  8  4  1  6
  5  6  1  0
  5 33  1  1
  5 34  1  0
  6  7  1  0
  6 35  1  6
  6 36  1  0
  7 37  1  6
  7 38  1  0
  7 39  1  0
  8  9  2  0
  8 10  2  0
  8 11  1  0
 11 25  2  0
 11 12  1  0
 12 13  2  0
 12 40  1  0
 13 14  1  0
 13 41  1  0
 14 15  1  0
 14 24  2  0
 15 16  1  0
 15 42  1  0
 16 17  2  0
 16 18  1  0
 18 19  1  0
 19 23  1  0
 19 20  1  0
 19 43  1  6
 20 21  1  0
 20 44  1  6
 20 45  1  0
 21 22  1  0
 21 46  1  6
 21 47  1  0
 22 23  1  0
 22 48  1  1
 22 49  1  0
 23 50  1  1
 23 51  1  0
 24 25  1  0
 24 52  1  0
 25 53  1  0
M  END
$$$$
