ZINC000585146899
     RDKit          3D

 48 49  0  0  1  0  0  0  0  0999 V2000
   -0.0187    1.5258    0.0104 C   0  0  1  0  0  0  0  0  0  0  0  0
    0.0021   -0.0041    0.0020 C   0  0  1  0  0  0  0  0  0  0  0  0
    0.7421   -0.5109    1.2415 C   0  0  1  0  0  0  0  0  0  0  0  0
   -1.4333   -0.5336    0.0129 C   0  0  1  0  0  0  0  0  0  0  0  0
   -1.4124   -2.3405   -0.1461 S   0  0  1  0  0  0  0  0  0  0  0  0
   -0.8980   -2.6764   -1.4274 O   0  0  0  0  0  0  0  0  0  0  0  0
   -0.8007   -2.8899    1.0129 O   0  0  0  0  0  0  0  0  0  0  0  0
   -3.1814   -2.7404   -0.1106 C   0  0  2  0  0  0  0  0  0  0  0  0
   -3.6677   -2.3175   -0.9897 H   0  0  0  0  0  0  0  0  0  0  0  0
   -3.8125   -2.1534    1.1541 C   0  0  1  0  0  0  0  0  0  0  0  0
   -5.3114   -2.4620    1.1687 C   0  0  1  0  0  0  0  0  0  0  0  0
   -5.5159   -3.9801    1.1862 C   0  0  1  0  0  0  0  0  0  0  0  0
   -4.7899   -4.5681    0.0523 N   0  0  0  0  0  0  0  0  0  0  0  0
   -5.5662   -5.5576   -1.0250 S   0  0  1  0  0  0  0  0  0  0  0  0
   -4.5627   -6.3689   -1.6199 O   0  0  0  0  0  0  0  0  0  0  0  0
   -6.6920   -6.0905   -0.3409 O   0  0  0  0  0  0  0  0  0  0  0  0
   -6.2034   -4.5328   -2.3088 C   0  0  0  0  0  0  0  0  0  0  0  0
   -7.4711   -3.9929   -2.1973 C   0  0  0  0  0  0  0  0  0  0  0  0
   -7.9710   -3.1889   -3.2045 C   0  0  0  0  0  0  0  0  0  0  0  0
   -7.2030   -2.9244   -4.3231 C   0  0  0  0  0  0  0  0  0  0  0  0
   -7.7482   -2.0483   -5.4214 C   0  0  1  0  0  0  0  0  0  0  0  0
   -7.4127   -0.7147   -5.1640 F   0  0  0  0  0  0  0  0  0  0  0  0
   -7.1976   -2.4394   -6.6466 F   0  0  0  0  0  0  0  0  0  0  0  0
   -9.1402   -2.1773   -5.4733 F   0  0  0  0  0  0  0  0  0  0  0  0
   -5.9348   -3.4632   -4.4340 C   0  0  0  0  0  0  0  0  0  0  0  0
   -5.4335   -4.2641   -3.4250 C   0  0  0  0  0  0  0  0  0  0  0  0
   -3.3619   -4.2616   -0.1084 C   0  0  1  0  0  0  0  0  0  0  0  0
    1.0039    1.9031    0.0027 H   0  0  0  0  0  0  0  0  0  0  0  0
   -0.5459    1.8868   -0.8726 H   0  0  0  0  0  0  0  0  0  0  0  0
   -0.5289    1.8773    0.9072 H   0  0  0  0  0  0  0  0  0  0  0  0
    0.5123   -0.3556   -0.8948 H   0  0  0  0  0  0  0  0  0  0  0  0
    0.2319   -0.1594    2.1383 H   0  0  0  0  0  0  0  0  0  0  0  0
    0.7568   -1.6008    1.2356 H   0  0  0  0  0  0  0  0  0  0  0  0
    1.7647   -0.1336    1.2338 H   0  0  0  0  0  0  0  0  0  0  0  0
   -1.9156   -0.2570    0.9504 H   0  0  0  0  0  0  0  0  0  0  0  0
   -1.9862   -0.1019   -0.8214 H   0  0  0  0  0  0  0  0  0  0  0  0
   -3.3423   -2.5946    2.0329 H   0  0  0  0  0  0  0  0  0  0  0  0
   -3.6639   -1.0736    1.1665 H   0  0  0  0  0  0  0  0  0  0  0  0
   -5.7644   -2.0236    2.0580 H   0  0  0  0  0  0  0  0  0  0  0  0
   -5.7780   -2.0422    0.2776 H   0  0  0  0  0  0  0  0  0  0  0  0
   -5.1300   -4.3901    2.1195 H   0  0  0  0  0  0  0  0  0  0  0  0
   -6.5784   -4.2066    1.0968 H   0  0  0  0  0  0  0  0  0  0  0  0
   -8.0710   -4.1995   -1.3234 H   0  0  0  0  0  0  0  0  0  0  0  0
   -8.9616   -2.7676   -3.1177 H   0  0  0  0  0  0  0  0  0  0  0  0
   -5.3347   -3.2563   -5.3078 H   0  0  0  0  0  0  0  0  0  0  0  0
   -4.4427   -4.6850   -3.5117 H   0  0  0  0  0  0  0  0  0  0  0  0
   -3.0035   -4.6742   -1.0515 H   0  0  0  0  0  0  0  0  0  0  0  0
   -2.7998   -4.6943    0.7192 H   0  0  0  0  0  0  0  0  0  0  0  0
  1  2  1  0
  1 28  1  6
  1 29  1  0
  1 30  1  0
  2  3  1  0
  2  4  1  0
  2 31  1  6
  3 32  1  1
  3 33  1  0
  3 34  1  0
  4  5  1  0
  4 35  1  1
  4 36  1  0
  5  6  2  0
  5  7  2  0
  5  8  1  6
  8  9  1  6
  8 27  1  0
  8 10  1  0
 10 11  1  0
 10 37  1  1
 10 38  1  0
 11 12  1  0
 11 39  1  1
 11 40  1  0
 12 13  1  0
 12 41  1  1
 12 42  1  0
 14 13  1  1
 13 27  1  0
 14 15  2  0
 14 16  2  0
 14 17  1  0
 17 26  2  0
 17 18  1  0
 18 19  2  0
 18 43  1  0
 19 20  1  0
 19 44  1  0
 20 21  1  0
 20 25  2  0
 21 22  1  1
 21 23  1  0
 21 24  1  0
 25 26  1  0
 25 45  1  0
 26 46  1  0
 27 47  1  6
 27 48  1  0
M  END
$$$$
