ZINC000012778292
     RDKit          3D

 44 46  0  0  1  0  0  0  0  0999 V2000
   -0.1275    0.1270    0.3386 C   0  0  1  0  0  0  0  0  0  0  0  0
   -0.1735   -1.1950   -0.2910 N   0  0  0  0  0  0  0  0  0  0  0  0
    0.9669   -1.7891   -0.6947 C   0  0  0  0  0  0  0  0  0  0  0  0
    2.0312   -1.2293   -0.5368 O   0  0  0  0  0  0  0  0  0  0  0  0
    0.9197   -3.1491   -1.3423 C   0  0  2  0  0  0  0  0  0  0  0  0
   -0.0891   -3.5560   -1.2721 H   0  0  0  0  0  0  0  0  0  0  0  0
    1.9050   -4.0872   -0.6471 C   0  0  1  0  0  0  0  0  0  0  0  0
    2.1119   -5.3414   -1.4547 C   0  0  0  0  0  0  0  0  0  0  0  0
    2.6172   -6.4557   -0.7963 C   0  0  0  0  0  0  0  0  0  0  0  0
    2.8395   -7.6335   -1.4792 C   0  0  0  0  0  0  0  0  0  0  0  0
    2.5594   -7.7080   -2.8307 C   0  0  0  0  0  0  0  0  0  0  0  0
    2.0542   -6.6038   -3.4865 C   0  0  0  0  0  0  0  0  0  0  0  0
    1.8246   -5.4201   -2.7992 C   0  0  0  0  0  0  0  0  0  0  0  0
    1.2464   -4.2599   -3.5699 C   0  0  1  0  0  0  0  0  0  0  0  0
    1.3160   -3.0415   -2.7562 N   0  0  0  0  0  0  0  0  0  0  0  0
    1.8227   -1.6029   -3.4013 S   0  0  1  0  0  0  0  0  0  0  0  0
    1.6751   -1.7206   -4.8097 O   0  0  0  0  0  0  0  0  0  0  0  0
    1.2001   -0.5792   -2.6373 O   0  0  0  0  0  0  0  0  0  0  0  0
    3.5524   -1.4728   -3.0915 C   0  0  0  0  0  0  0  0  0  0  0  0
    4.0195   -0.5827   -2.1429 C   0  0  0  0  0  0  0  0  0  0  0  0
    5.3767   -0.4806   -1.8998 C   0  0  0  0  0  0  0  0  0  0  0  0
    6.2663   -1.2690   -2.6050 C   0  0  0  0  0  0  0  0  0  0  0  0
    5.7990   -2.1600   -3.5533 C   0  0  0  0  0  0  0  0  0  0  0  0
    6.7690   -3.0193   -4.3225 C   0  0  1  0  0  0  0  0  0  0  0  0
    8.0741   -2.7378   -3.9047 F   0  0  0  0  0  0  0  0  0  0  0  0
    6.4848   -4.3687   -4.0871 F   0  0  0  0  0  0  0  0  0  0  0  0
    6.6485   -2.7490   -5.6899 F   0  0  0  0  0  0  0  0  0  0  0  0
    4.4419   -2.2652   -3.7932 C   0  0  0  0  0  0  0  0  0  0  0  0
    0.4784    0.0777    1.2434 H   0  0  0  0  0  0  0  0  0  0  0  0
    0.3121    0.8444   -0.3544 H   0  0  0  0  0  0  0  0  0  0  0  0
   -1.1388    0.4426    0.5952 H   0  0  0  0  0  0  0  0  0  0  0  0
   -1.0246   -1.6427   -0.4172 H   0  0  0  0  0  0  0  0  0  0  0  0
    2.8607   -3.5773   -0.5256 H   0  0  0  0  0  0  0  0  0  0  0  0
    1.5143   -4.3536    0.3350 H   0  0  0  0  0  0  0  0  0  0  0  0
    2.8381   -6.3991    0.2594 H   0  0  0  0  0  0  0  0  0  0  0  0
    3.2317   -8.4950   -0.9593 H   0  0  0  0  0  0  0  0  0  0  0  0
    2.7354   -8.6263   -3.3712 H   0  0  0  0  0  0  0  0  0  0  0  0
    1.8362   -6.6612   -4.5427 H   0  0  0  0  0  0  0  0  0  0  0  0
    1.8148   -4.1156   -4.4887 H   0  0  0  0  0  0  0  0  0  0  0  0
    0.2060   -4.4710   -3.8170 H   0  0  0  0  0  0  0  0  0  0  0  0
    3.3243    0.0333   -1.5918 H   0  0  0  0  0  0  0  0  0  0  0  0
    5.7417    0.2155   -1.1591 H   0  0  0  0  0  0  0  0  0  0  0  0
    7.3265   -1.1887   -2.4156 H   0  0  0  0  0  0  0  0  0  0  0  0
    4.0768   -2.9612   -4.5339 H   0  0  0  0  0  0  0  0  0  0  0  0
  1  2  1  0
  1 29  1  1
  1 30  1  0
  1 31  1  0
  2  3  1  0
  2 32  1  0
  3  4  2  0
  3  5  1  0
  5  6  1  6
  5 15  1  0
  5  7  1  0
  7  8  1  0
  7 33  1  1
  7 34  1  0
  8 13  2  0
  8  9  1  0
  9 10  2  0
  9 35  1  0
 10 11  1  0
 10 36  1  0
 11 12  2  0
 11 37  1  0
 12 13  1  0
 12 38  1  0
 13 14  1  0
 14 15  1  0
 14 39  1  6
 14 40  1  0
 16 15  1  1
 16 17  2  0
 16 18  2  0
 16 19  1  0
 19 28  2  0
 19 20  1  0
 20 21  2  0
 20 41  1  0
 21 22  1  0
 21 42  1  0
 22 23  2  0
 22 43  1  0
 23 24  1  0
 23 28  1  0
 24 25  1  1
 24 26  1  0
 24 27  1  0
 28 44  1  0
M  END
$$$$
