ZINC000044451797
     RDKit          3D

 37 38  0  0  0  0  0  0  0  0999 V2000
   -0.0173    1.4248    0.0099 C   0  0  1  0  0  0  0  0  0  0  0  0
    0.0021   -0.0041    0.0020 O   0  0  0  0  0  0  0  0  0  0  0  0
    0.6518   -0.5703   -1.1379 C   0  0  1  0  0  0  0  0  0  0  0  0
    2.1403   -0.7576   -0.8355 C   0  0  1  0  0  0  0  0  0  0  0  0
    2.8399   -1.3324   -2.0713 C   0  0  1  0  0  0  0  0  0  0  0  0
    2.1471   -2.5628   -2.4774 N   0  0  0  0  0  0  0  0  0  0  0  0
    2.9852   -3.9775   -2.6733 S   0  0  1  0  0  0  0  0  0  0  0  0
    2.2157   -4.7806   -3.5577 O   0  0  0  0  0  0  0  0  0  0  0  0
    4.3343   -3.6124   -2.9299 O   0  0  0  0  0  0  0  0  0  0  0  0
    2.9811   -4.8058   -1.1182 C   0  0  0  0  0  0  0  0  0  0  0  0
    3.9912   -4.5670   -0.2052 C   0  0  0  0  0  0  0  0  0  0  0  0
    3.9880   -5.2168    1.0149 C   0  0  0  0  0  0  0  0  0  0  0  0
    2.9744   -6.1052    1.3222 C   0  0  0  0  0  0  0  0  0  0  0  0
    2.9711   -6.8140    2.6520 C   0  0  1  0  0  0  0  0  0  0  0  0
    2.2656   -6.0486    3.5867 F   0  0  0  0  0  0  0  0  0  0  0  0
    2.3567   -8.0631    2.5132 F   0  0  0  0  0  0  0  0  0  0  0  0
    4.2881   -6.9883    3.0908 F   0  0  0  0  0  0  0  0  0  0  0  0
    1.9636   -6.3430    0.4097 C   0  0  0  0  0  0  0  0  0  0  0  0
    1.9647   -5.6903   -0.8088 C   0  0  0  0  0  0  0  0  0  0  0  0
    0.6965   -2.5142   -2.7059 C   0  0  1  0  0  0  0  0  0  0  0  0
    0.0210   -1.9262   -1.4631 C   0  0  1  0  0  0  0  0  0  0  0  0
    1.0053    1.8021    0.0021 H   0  0  0  0  0  0  0  0  0  0  0  0
   -0.5445    1.7859   -0.8732 H   0  0  0  0  0  0  0  0  0  0  0  0
   -0.5275    1.7763    0.9067 H   0  0  0  0  0  0  0  0  0  0  0  0
    0.5360    0.0981   -1.9911 H   0  0  0  0  0  0  0  0  0  0  0  0
    2.5838    0.2051   -0.5812 H   0  0  0  0  0  0  0  0  0  0  0  0
    2.2577   -1.4454    0.0019 H   0  0  0  0  0  0  0  0  0  0  0  0
    2.8017   -0.6064   -2.8835 H   0  0  0  0  0  0  0  0  0  0  0  0
    3.8782   -1.5601   -1.8305 H   0  0  0  0  0  0  0  0  0  0  0  0
    4.7831   -3.8729   -0.4452 H   0  0  0  0  0  0  0  0  0  0  0  0
    4.7775   -5.0307    1.7279 H   0  0  0  0  0  0  0  0  0  0  0  0
    1.1715   -7.0368    0.6499 H   0  0  0  0  0  0  0  0  0  0  0  0
    1.1750   -5.8760   -1.5217 H   0  0  0  0  0  0  0  0  0  0  0  0
    0.4836   -1.8847   -3.5699 H   0  0  0  0  0  0  0  0  0  0  0  0
    0.3207   -3.5218   -2.8839 H   0  0  0  0  0  0  0  0  0  0  0  0
    0.1584   -2.6030   -0.6198 H   0  0  0  0  0  0  0  0  0  0  0  0
   -1.0439   -1.7953   -1.6554 H   0  0  0  0  0  0  0  0  0  0  0  0
  1  2  1  0
  1 22  1  6
  1 23  1  0
  1 24  1  0
  2  3  1  0
  3 21  1  0
  3  4  1  0
  3 25  1  6
  4  5  1  0
  4 26  1  1
  4 27  1  0
  5  6  1  0
  5 28  1  6
  5 29  1  0
  7  6  1  1
  6 20  1  0
  7  8  2  0
  7  9  2  0
  7 10  1  0
 10 19  2  0
 10 11  1  0
 11 12  2  0
 11 30  1  0
 12 13  1  0
 12 31  1  0
 13 14  1  0
 13 18  2  0
 14 15  1  1
 14 16  1  0
 14 17  1  0
 18 19  1  0
 18 32  1  0
 19 33  1  0
 20 21  1  0
 20 34  1  6
 20 35  1  0
 21 36  1  1
 21 37  1  0
M  END
$$$$
