ZINC000408608168
     RDKit          3D

 65 67  0  0  1  0  0  0  0  0999 V2000
   -3.4514   -8.8330    0.6240 C   0  0  1  0  0  0  0  0  0  0  0  0
   -2.5376   -7.6468    0.4537 C   0  0  0  0  0  0  0  0  0  0  0  0
   -2.2502   -6.8348    1.5349 C   0  0  0  0  0  0  0  0  0  0  0  0
   -1.4120   -5.7467    1.3786 C   0  0  0  0  0  0  0  0  0  0  0  0
   -0.8608   -5.4710    0.1413 C   0  0  0  0  0  0  0  0  0  0  0  0
    0.0526   -4.2845   -0.0292 C   0  0  1  0  0  0  0  0  0  0  0  0
    1.4465   -4.7211    0.0837 N   0  0  0  0  0  0  0  0  0  0  0  0
    2.0621   -4.8719    1.4045 C   0  0  1  0  0  0  0  0  0  0  0  0
    1.7411   -6.2374    1.9554 C   0  0  0  0  0  0  0  0  0  0  0  0
    1.0646   -7.0086    1.3085 O   0  0  0  0  0  0  0  0  0  0  0  0
    2.2056   -6.6016    3.1670 N   0  0  0  0  0  0  0  0  0  0  0  0
    1.8935   -7.9290    3.7026 C   0  0  2  0  0  0  0  0  0  0  0  0
    1.8647   -8.6520    2.8874 H   0  0  0  0  0  0  0  0  0  0  0  0
    0.5317   -7.8907    4.3988 C   0  0  1  0  0  0  0  0  0  0  0  0
    2.9699   -8.3386    4.7098 C   0  0  1  0  0  0  0  0  0  0  0  0
    4.3095   -8.4980    3.9881 C   0  0  1  0  0  0  0  0  0  0  0  0
    5.3698   -8.9014    4.9801 C   0  0  0  0  0  0  0  0  0  0  0  0
    6.0996   -7.9331    5.6439 C   0  0  0  0  0  0  0  0  0  0  0  0
    7.0721   -8.3031    6.5539 C   0  0  0  0  0  0  0  0  0  0  0  0
    7.3145   -9.6415    6.8005 C   0  0  0  0  0  0  0  0  0  0  0  0
    6.5840  -10.6099    6.1375 C   0  0  0  0  0  0  0  0  0  0  0  0
    5.6086  -10.2398    5.2306 C   0  0  0  0  0  0  0  0  0  0  0  0
    2.3262   -5.0441   -1.2816 S   0  0  1  0  0  0  0  0  0  0  0  0
    3.2845   -6.0283   -0.9180 O   0  0  0  0  0  0  0  0  0  0  0  0
    1.3857   -5.2256   -2.3313 O   0  0  0  0  0  0  0  0  0  0  0  0
    3.2345   -3.5861   -1.6739 C   0  0  0  0  0  0  0  0  0  0  0  0
    2.7216   -2.6745   -2.5776 C   0  0  0  0  0  0  0  0  0  0  0  0
    3.4342   -1.5306   -2.8854 C   0  0  0  0  0  0  0  0  0  0  0  0
    4.6595   -1.2982   -2.2891 C   0  0  0  0  0  0  0  0  0  0  0  0
    5.4366   -0.0515   -2.6249 C   0  0  1  0  0  0  0  0  0  0  0  0
    5.1718   -2.2092   -1.3843 C   0  0  0  0  0  0  0  0  0  0  0  0
    4.4574   -3.3512   -1.0737 C   0  0  0  0  0  0  0  0  0  0  0  0
   -1.1470   -6.2838   -0.9396 C   0  0  0  0  0  0  0  0  0  0  0  0
   -1.9822   -7.3741   -0.7825 C   0  0  0  0  0  0  0  0  0  0  0  0
   -2.8629   -9.7085    0.8984 H   0  0  0  0  0  0  0  0  0  0  0  0
   -4.1774   -8.6225    1.4094 H   0  0  0  0  0  0  0  0  0  0  0  0
   -3.9748   -9.0259   -0.3124 H   0  0  0  0  0  0  0  0  0  0  0  0
   -2.6809   -7.0503    2.5016 H   0  0  0  0  0  0  0  0  0  0  0  0
   -1.1881   -5.1119    2.2231 H   0  0  0  0  0  0  0  0  0  0  0  0
   -0.1101   -3.8387   -1.0104 H   0  0  0  0  0  0  0  0  0  0  0  0
   -0.1611   -3.5473    0.7448 H   0  0  0  0  0  0  0  0  0  0  0  0
    3.1428   -4.7606    1.3165 H   0  0  0  0  0  0  0  0  0  0  0  0
    1.6716   -4.1079    2.0768 H   0  0  0  0  0  0  0  0  0  0  0  0
    2.7467   -5.9847    3.6845 H   0  0  0  0  0  0  0  0  0  0  0  0
   -0.2352   -7.5989    3.6812 H   0  0  0  0  0  0  0  0  0  0  0  0
    0.2995   -8.8784    4.7972 H   0  0  0  0  0  0  0  0  0  0  0  0
    0.5605   -7.1677    5.2139 H   0  0  0  0  0  0  0  0  0  0  0  0
    3.0601   -7.5703    5.4777 H   0  0  0  0  0  0  0  0  0  0  0  0
    2.6922   -9.2850    5.1736 H   0  0  0  0  0  0  0  0  0  0  0  0
    4.2193   -9.2663    3.2201 H   0  0  0  0  0  0  0  0  0  0  0  0
    4.5873   -7.5515    3.5242 H   0  0  0  0  0  0  0  0  0  0  0  0
    5.9102   -6.8874    5.4512 H   0  0  0  0  0  0  0  0  0  0  0  0
    7.6428   -7.5466    7.0719 H   0  0  0  0  0  0  0  0  0  0  0  0
    8.0748   -9.9307    7.5110 H   0  0  0  0  0  0  0  0  0  0  0  0
    6.7736  -11.6555    6.3299 H   0  0  0  0  0  0  0  0  0  0  0  0
    5.0379  -10.9963    4.7126 H   0  0  0  0  0  0  0  0  0  0  0  0
    1.7643   -2.8560   -3.0435 H   0  0  0  0  0  0  0  0  0  0  0  0
    3.0338   -0.8187   -3.5919 H   0  0  0  0  0  0  0  0  0  0  0  0
    5.1560    0.7475   -1.9386 H   0  0  0  0  0  0  0  0  0  0  0  0
    6.5039   -0.2524   -2.5318 H   0  0  0  0  0  0  0  0  0  0  0  0
    5.2120    0.2522   -3.6474 H   0  0  0  0  0  0  0  0  0  0  0  0
    6.1289   -2.0275   -0.9182 H   0  0  0  0  0  0  0  0  0  0  0  0
    4.8576   -4.0629   -0.3668 H   0  0  0  0  0  0  0  0  0  0  0  0
   -0.7161   -6.0686   -1.9062 H   0  0  0  0  0  0  0  0  0  0  0  0
   -2.2058   -8.0091   -1.6269 H   0  0  0  0  0  0  0  0  0  0  0  0
  1  2  1  0
  1 35  1  1
  1 36  1  0
  1 37  1  0
  2 34  2  0
  2  3  1  0
  3  4  2  0
  3 38  1  0
  4  5  1  0
  4 39  1  0
  5  6  1  0
  5 33  2  0
  6  7  1  0
  6 40  1  6
  6 41  1  0
  7  8  1  0
 23  7  1  1
  8  9  1  0
  8 42  1  6
  8 43  1  0
  9 10  2  0
  9 11  1  0
 11 12  1  0
 11 44  1  0
 12 13  1  6
 12 14  1  0
 12 15  1  0
 14 45  1  6
 14 46  1  0
 14 47  1  0
 15 16  1  0
 15 48  1  1
 15 49  1  0
 16 17  1  0
 16 50  1  6
 16 51  1  0
 17 22  2  0
 17 18  1  0
 18 19  2  0
 18 52  1  0
 19 20  1  0
 19 53  1  0
 20 21  2  0
 20 54  1  0
 21 22  1  0
 21 55  1  0
 22 56  1  0
 23 24  2  0
 23 25  2  0
 23 26  1  0
 26 32  2  0
 26 27  1  0
 27 28  2  0
 27 57  1  0
 28 29  1  0
 28 58  1  0
 29 30  1  0
 29 31  2  0
 30 59  1  1
 30 60  1  0
 30 61  1  0
 31 32  1  0
 31 62  1  0
 32 63  1  0
 33 34  1  0
 33 64  1  0
 34 65  1  0
M  END
$$$$
