ZINC000012760978
     RDKit          3D

 64 65  0  0  0  0  0  0  0  0999 V2000
    0.0069    1.5041   -0.0236 C   0  0  1  0  0  0  0  0  0  0  0  0
    0.0179   -0.0256    0.0035 C   0  0  1  0  0  0  0  0  0  0  0  0
    0.7027   -0.4876    1.2134 N   0  0  0  0  0  0  0  0  0  0  0  0
   -0.0369   -0.6106    2.4721 C   0  0  1  0  0  0  0  0  0  0  0  0
   -0.7335   -1.9718    2.5234 C   0  0  1  0  0  0  0  0  0  0  0  0
    2.3128   -0.8709    1.1584 S   0  0  1  0  0  0  0  0  0  0  0  0
    2.5491   -1.7665    2.2361 O   0  0  0  0  0  0  0  0  0  0  0  0
    2.6031   -1.1903   -0.1955 O   0  0  0  0  0  0  0  0  0  0  0  0
    3.2117    0.5990    1.5267 C   0  0  0  0  0  0  0  0  0  0  0  0
    3.5844    1.4532    0.5058 C   0  0  0  0  0  0  0  0  0  0  0  0
    4.2902    2.6085    0.7886 C   0  0  0  0  0  0  0  0  0  0  0  0
    4.6260    2.9124    2.0975 C   0  0  0  0  0  0  0  0  0  0  0  0
    5.3199    4.0480    2.3771 O   0  0  0  0  0  0  0  0  0  0  0  0
    6.6622    3.9463    2.5617 C   0  0  0  0  0  0  0  0  0  0  0  0
    7.3032    2.7345    2.3478 C   0  0  0  0  0  0  0  0  0  0  0  0
    8.6682    2.6339    2.5358 C   0  0  0  0  0  0  0  0  0  0  0  0
    9.3651    1.3180    2.3036 C   0  0  1  0  0  0  0  0  0  0  0  0
    9.3954    3.7394    2.9362 C   0  0  0  0  0  0  0  0  0  0  0  0
    8.7590    4.9484    3.1502 C   0  0  0  0  0  0  0  0  0  0  0  0
    7.3954    5.0557    2.9590 C   0  0  0  0  0  0  0  0  0  0  0  0
    6.7025    6.3735    3.1919 C   0  0  1  0  0  0  0  0  0  0  0  0
    6.9070    6.8075    4.6448 C   0  0  1  0  0  0  0  0  0  0  0  0
    7.2909    7.4314    2.2561 C   0  0  1  0  0  0  0  0  0  0  0  0
    4.2505    2.0516    3.1274 C   0  0  0  0  0  0  0  0  0  0  0  0
    4.5866    2.3536    4.4518 N   0  0  0  0  0  0  0  0  0  0  0  0
    4.1909    1.4475    5.5328 C   0  0  1  0  0  0  0  0  0  0  0  0
    4.6708    1.9982    6.8509 C   0  0  0  0  0  0  0  0  0  0  0  0
    5.2830    3.0447    6.8841 O   0  0  0  0  0  0  0  0  0  0  0  0
    4.4197    1.3279    7.9929 N   0  0  0  0  0  0  0  0  0  0  0  0
    4.8862    1.8633    9.2743 C   0  0  1  0  0  0  0  0  0  0  0  0
    3.5377    0.8981    2.8366 C   0  0  0  0  0  0  0  0  0  0  0  0
    1.0319    1.8749   -0.0222 H   0  0  0  0  0  0  0  0  0  0  0  0
   -0.5026    1.8478   -0.9238 H   0  0  0  0  0  0  0  0  0  0  0  0
   -0.5165    1.8793    0.8558 H   0  0  0  0  0  0  0  0  0  0  0  0
   -1.0071   -0.3964    0.0021 H   0  0  0  0  0  0  0  0  0  0  0  0
    0.5412   -0.4009   -0.8759 H   0  0  0  0  0  0  0  0  0  0  0  0
    0.6549   -0.5246    3.3099 H   0  0  0  0  0  0  0  0  0  0  0  0
   -0.7828    0.1818    2.5340 H   0  0  0  0  0  0  0  0  0  0  0  0
   -1.4254   -2.0578    1.6855 H   0  0  0  0  0  0  0  0  0  0  0  0
    0.0124   -2.7642    2.4614 H   0  0  0  0  0  0  0  0  0  0  0  0
   -1.2838   -2.0633    3.4599 H   0  0  0  0  0  0  0  0  0  0  0  0
    3.3241    1.2175   -0.5155 H   0  0  0  0  0  0  0  0  0  0  0  0
    4.5799    3.2737   -0.0114 H   0  0  0  0  0  0  0  0  0  0  0  0
    6.7356    1.8706    2.0349 H   0  0  0  0  0  0  0  0  0  0  0  0
    9.6874    1.2560    1.2642 H   0  0  0  0  0  0  0  0  0  0  0  0
   10.2337    1.2465    2.9582 H   0  0  0  0  0  0  0  0  0  0  0  0
    8.6783    0.4999    2.5205 H   0  0  0  0  0  0  0  0  0  0  0  0
   10.4624    3.6585    3.0826 H   0  0  0  0  0  0  0  0  0  0  0  0
    9.3294    5.8104    3.4630 H   0  0  0  0  0  0  0  0  0  0  0  0
    5.6366    6.2640    2.9920 H   0  0  0  0  0  0  0  0  0  0  0  0
    6.4059    7.7607    4.8132 H   0  0  0  0  0  0  0  0  0  0  0  0
    6.4879    6.0538    5.3115 H   0  0  0  0  0  0  0  0  0  0  0  0
    7.9729    6.9170    4.8447 H   0  0  0  0  0  0  0  0  0  0  0  0
    7.1452    7.1222    1.2211 H   0  0  0  0  0  0  0  0  0  0  0  0
    6.7898    8.3846    2.4245 H   0  0  0  0  0  0  0  0  0  0  0  0
    8.3568    7.5409    2.4560 H   0  0  0  0  0  0  0  0  0  0  0  0
    5.0815    3.1630    4.6541 H   0  0  0  0  0  0  0  0  0  0  0  0
    3.1049    1.3560    5.5510 H   0  0  0  0  0  0  0  0  0  0  0  0
    4.6355    0.4664    5.3655 H   0  0  0  0  0  0  0  0  0  0  0  0
    3.9300    0.4910    7.9663 H   0  0  0  0  0  0  0  0  0  0  0  0
    4.5918    1.1891   10.0785 H   0  0  0  0  0  0  0  0  0  0  0  0
    5.9722    1.9548    9.2561 H   0  0  0  0  0  0  0  0  0  0  0  0
    4.4416    2.8444    9.4416 H   0  0  0  0  0  0  0  0  0  0  0  0
    3.2449    0.2291    3.6323 H   0  0  0  0  0  0  0  0  0  0  0  0
  1  2  1  0
  1 32  1  6
  1 33  1  0
  1 34  1  0
  2  3  1  0
  2 35  1  1
  2 36  1  0
  3  4  1  0
  6  3  1  6
  4  5  1  0
  4 37  1  1
  4 38  1  0
  5 39  1  6
  5 40  1  0
  5 41  1  0
  6  7  2  0
  6  8  2  0
  6  9  1  0
  9 31  2  0
  9 10  1  0
 10 11  2  0
 10 42  1  0
 11 12  1  0
 11 43  1  0
 12 13  1  0
 12 24  2  0
 13 14  1  0
 14 20  2  0
 14 15  1  0
 15 16  2  0
 15 44  1  0
 16 17  1  0
 16 18  1  0
 17 45  1  6
 17 46  1  0
 17 47  1  0
 18 19  2  0
 18 48  1  0
 19 20  1  0
 19 49  1  0
 20 21  1  0
 21 22  1  0
 21 23  1  0
 21 50  1  6
 22 51  1  6
 22 52  1  0
 22 53  1  0
 23 54  1  6
 23 55  1  0
 23 56  1  0
 24 25  1  0
 24 31  1  0
 25 26  1  0
 25 57  1  0
 26 27  1  0
 26 58  1  1
 26 59  1  0
 27 28  2  0
 27 29  1  0
 29 30  1  0
 29 60  1  0
 30 61  1  1
 30 62  1  0
 30 63  1  0
 31 64  1  0
M  END
$$$$
