ZINC000003024934
     RDKit          3D

 53 55  0  0  1  0  0  0  0  0999 V2000
   -0.0263    1.5450   -0.0282 C   0  0  1  0  0  0  0  0  0  0  0  0
   -0.0091    0.0151   -0.0317 C   0  0  2  0  0  0  0  0  0  0  0  0
    0.5055   -0.3409   -0.9242 H   0  0  0  0  0  0  0  0  0  0  0  0
   -1.4458   -0.5119   -0.0261 C   0  0  1  0  0  0  0  0  0  0  0  0
   -1.4300   -2.0418   -0.0626 C   0  0  1  0  0  0  0  0  0  0  0  0
   -2.4536   -2.4158   -0.0822 H   0  0  0  0  0  0  0  0  0  0  0  0
   -0.6893   -2.5150   -1.3150 C   0  0  1  0  0  0  0  0  0  0  0  0
   -0.7160   -2.5710    1.1851 C   0  0  1  0  0  0  0  0  0  0  0  0
    0.6158   -1.9555    1.2647 N   0  0  0  0  0  0  0  0  0  0  0  0
    1.9723   -2.8947    1.4055 S   0  0  1  0  0  0  0  0  0  0  0  0
    2.9693   -2.0735    1.9978 O   0  0  0  0  0  0  0  0  0  0  0  0
    1.5488   -4.1298    1.9663 O   0  0  0  0  0  0  0  0  0  0  0  0
    2.5294   -3.2545   -0.2269 C   0  0  0  0  0  0  0  0  0  0  0  0
    2.0611   -4.3796   -0.8833 C   0  0  0  0  0  0  0  0  0  0  0  0
    2.4923   -4.6711   -2.1641 C   0  0  0  0  0  0  0  0  0  0  0  0
    3.3958   -3.8385   -2.7983 C   0  0  0  0  0  0  0  0  0  0  0  0
    3.8171   -4.1234   -4.0499 F   0  0  0  0  0  0  0  0  0  0  0  0
    3.8720   -2.6999   -2.1399 C   0  0  0  0  0  0  0  0  0  0  0  0
    4.8371   -1.8049   -2.8091 C   0  0  0  0  0  0  0  0  0  0  0  0
    5.2199   -2.0567   -3.9353 O   0  0  0  0  0  0  0  0  0  0  0  0
    5.2936   -0.7087   -2.1715 N   0  0  0  0  0  0  0  0  0  0  0  0
    6.2796    0.0857   -2.7653 C   0  0  0  0  0  0  0  0  0  0  0  0
    7.2479    0.6967   -1.9790 C   0  0  0  0  0  0  0  0  0  0  0  0
    8.2205    1.4802   -2.5685 C   0  0  0  0  0  0  0  0  0  0  0  0
    8.2307    1.6571   -3.9400 C   0  0  0  0  0  0  0  0  0  0  0  0
    9.2935    2.5127   -4.5798 C   0  0  1  0  0  0  0  0  0  0  0  0
   10.3968    1.7178   -4.9087 F   0  0  0  0  0  0  0  0  0  0  0  0
    8.7812    3.1026   -5.7403 F   0  0  0  0  0  0  0  0  0  0  0  0
    9.6893    3.5121   -3.6844 F   0  0  0  0  0  0  0  0  0  0  0  0
    7.2681    1.0502   -4.7256 C   0  0  0  0  0  0  0  0  0  0  0  0
    6.2961    0.2608   -4.1430 C   0  0  0  0  0  0  0  0  0  0  0  0
    3.4261   -2.4113   -0.8485 C   0  0  0  0  0  0  0  0  0  0  0  0
    0.7218   -0.4908    1.2160 C   0  0  1  0  0  0  0  0  0  0  0  0
    0.9972    1.9199   -0.0311 H   0  0  0  0  0  0  0  0  0  0  0  0
   -0.5474    1.9045   -0.9156 H   0  0  0  0  0  0  0  0  0  0  0  0
   -0.5410    1.9006    0.8644 H   0  0  0  0  0  0  0  0  0  0  0  0
   -1.9525   -0.1755    0.8785 H   0  0  0  0  0  0  0  0  0  0  0  0
   -1.9750   -0.1332   -0.9005 H   0  0  0  0  0  0  0  0  0  0  0  0
    0.3345   -2.1416   -1.2944 H   0  0  0  0  0  0  0  0  0  0  0  0
   -0.6783   -3.6046   -1.3406 H   0  0  0  0  0  0  0  0  0  0  0  0
   -1.1966   -2.1358   -2.2021 H   0  0  0  0  0  0  0  0  0  0  0  0
   -1.2920   -2.3117    2.0734 H   0  0  0  0  0  0  0  0  0  0  0  0
   -0.6144   -3.6541    1.1162 H   0  0  0  0  0  0  0  0  0  0  0  0
    1.3555   -5.0334   -0.3922 H   0  0  0  0  0  0  0  0  0  0  0  0
    2.1229   -5.5509   -2.6700 H   0  0  0  0  0  0  0  0  0  0  0  0
    4.9383   -0.4708   -1.3009 H   0  0  0  0  0  0  0  0  0  0  0  0
    7.2401    0.5595   -0.9078 H   0  0  0  0  0  0  0  0  0  0  0  0
    8.9737    1.9556   -1.9577 H   0  0  0  0  0  0  0  0  0  0  0  0
    7.2788    1.1903   -5.7965 H   0  0  0  0  0  0  0  0  0  0  0  0
    5.5448   -0.2133   -4.7572 H   0  0  0  0  0  0  0  0  0  0  0  0
    3.7895   -1.5339   -0.3342 H   0  0  0  0  0  0  0  0  0  0  0  0
    1.7717   -0.2018    1.1678 H   0  0  0  0  0  0  0  0  0  0  0  0
    0.2629   -0.0614    2.1066 H   0  0  0  0  0  0  0  0  0  0  0  0
  1  2  1  0
  1 34  1  6
  1 35  1  0
  1 36  1  0
  2  3  1  6
  2 33  1  0
  2  4  1  0
  4  5  1  0
  4 37  1  1
  4 38  1  0
  5  6  1  6
  5  7  1  0
  5  8  1  0
  7 39  1  1
  7 40  1  0
  7 41  1  0
  8  9  1  0
  8 42  1  1
  8 43  1  0
 10  9  1  6
  9 33  1  0
 10 11  2  0
 10 12  2  0
 10 13  1  0
 13 32  2  0
 13 14  1  0
 14 15  2  0
 14 44  1  0
 15 16  1  0
 15 45  1  0
 16 17  1  0
 16 18  2  0
 18 19  1  0
 18 32  1  0
 19 20  2  0
 19 21  1  0
 21 22  1  0
 21 46  1  0
 22 31  2  0
 22 23  1  0
 23 24  2  0
 23 47  1  0
 24 25  1  0
 24 48  1  0
 25 26  1  0
 25 30  2  0
 26 27  1  6
 26 28  1  0
 26 29  1  0
 30 31  1  0
 30 49  1  0
 31 50  1  0
 32 51  1  0
 33 52  1  6
 33 53  1  0
M  END
$$$$
