ZINC000000912417
     RDKit          3D

 48 50  0  0  0  0  0  0  0  0999 V2000
   -9.0479   -6.1174    4.1559 C   0  0  1  0  0  0  0  0  0  0  0  0
   -9.2316   -4.7919    3.6545 O   0  0  0  0  0  0  0  0  0  0  0  0
   -8.2799   -4.3143    2.8100 C   0  0  0  0  0  0  0  0  0  0  0  0
   -7.1946   -5.1072    2.4665 C   0  0  0  0  0  0  0  0  0  0  0  0
   -6.2288   -4.6196    1.6076 C   0  0  0  0  0  0  0  0  0  0  0  0
   -6.3429   -3.3422    1.0907 C   0  0  0  0  0  0  0  0  0  0  0  0
   -5.1090   -2.7230   -0.0042 S   0  0  1  0  0  0  0  0  0  0  0  0
   -5.1590   -1.3063    0.0950 O   0  0  0  0  0  0  0  0  0  0  0  0
   -3.9325   -3.4787    0.2486 O   0  0  0  0  0  0  0  0  0  0  0  0
   -5.5858   -3.1011   -1.5443 N   0  0  0  0  0  0  0  0  0  0  0  0
   -5.2909   -4.4249   -2.0982 C   0  0  1  0  0  0  0  0  0  0  0  0
   -6.4778   -5.3308   -1.8937 C   0  0  0  0  0  0  0  0  0  0  0  0
   -7.4721   -4.9119   -1.3398 O   0  0  0  0  0  0  0  0  0  0  0  0
   -6.4343   -6.6065   -2.3263 N   0  0  0  0  0  0  0  0  0  0  0  0
   -7.5881   -7.4871   -2.1275 C   0  0  1  0  0  0  0  0  0  0  0  0
   -8.0086   -8.3760   -3.2997 C   0  0  1  0  0  0  0  0  0  0  0  0
   -7.3265   -8.9938   -2.0774 C   0  0  1  0  0  0  0  0  0  0  0  0
   -6.3025   -2.1118   -2.3529 C   0  0  1  0  0  0  0  0  0  0  0  0
   -5.3245   -1.3823   -3.2373 C   0  0  0  0  0  0  0  0  0  0  0  0
   -4.7921   -0.1736   -2.8293 C   0  0  0  0  0  0  0  0  0  0  0  0
   -3.8950    0.4956   -3.6406 C   0  0  0  0  0  0  0  0  0  0  0  0
   -3.5299   -0.0441   -4.8598 C   0  0  0  0  0  0  0  0  0  0  0  0
   -4.0616   -1.2533   -5.2674 C   0  0  0  0  0  0  0  0  0  0  0  0
   -4.9555   -1.9245   -4.4542 C   0  0  0  0  0  0  0  0  0  0  0  0
   -7.4238   -2.5502    1.4312 C   0  0  0  0  0  0  0  0  0  0  0  0
   -8.3950   -3.0351    2.2856 C   0  0  0  0  0  0  0  0  0  0  0  0
   -9.8762   -6.3740    4.8163 H   0  0  0  0  0  0  0  0  0  0  0  0
   -9.0162   -6.8198    3.3230 H   0  0  0  0  0  0  0  0  0  0  0  0
   -8.1112   -6.1693    4.7109 H   0  0  0  0  0  0  0  0  0  0  0  0
   -7.1047   -6.1047    2.8705 H   0  0  0  0  0  0  0  0  0  0  0  0
   -5.3837   -5.2364    1.3398 H   0  0  0  0  0  0  0  0  0  0  0  0
   -5.0823   -4.3345   -3.1642 H   0  0  0  0  0  0  0  0  0  0  0  0
   -4.4217   -4.8451   -1.5922 H   0  0  0  0  0  0  0  0  0  0  0  0
   -5.6390   -6.9415   -2.7693 H   0  0  0  0  0  0  0  0  0  0  0  0
   -8.3765   -7.0916   -1.4872 H   0  0  0  0  0  0  0  0  0  0  0  0
   -9.0740   -8.5653   -3.4308 H   0  0  0  0  0  0  0  0  0  0  0  0
   -7.4268   -8.3056   -4.2188 H   0  0  0  0  0  0  0  0  0  0  0  0
   -6.2959   -9.3297   -2.1923 H   0  0  0  0  0  0  0  0  0  0  0  0
   -7.9431   -9.5895   -1.4044 H   0  0  0  0  0  0  0  0  0  0  0  0
   -7.0448   -2.6168   -2.9711 H   0  0  0  0  0  0  0  0  0  0  0  0
   -6.8010   -1.3985   -1.6966 H   0  0  0  0  0  0  0  0  0  0  0  0
   -5.0774    0.2481   -1.8768 H   0  0  0  0  0  0  0  0  0  0  0  0
   -3.4796    1.4403   -3.3221 H   0  0  0  0  0  0  0  0  0  0  0  0
   -2.8296    0.4791   -5.4939 H   0  0  0  0  0  0  0  0  0  0  0  0
   -3.7766   -1.6748   -6.2200 H   0  0  0  0  0  0  0  0  0  0  0  0
   -5.3709   -2.8692   -4.7726 H   0  0  0  0  0  0  0  0  0  0  0  0
   -7.5109   -1.5529    1.0259 H   0  0  0  0  0  0  0  0  0  0  0  0
   -9.2392   -2.4160    2.5512 H   0  0  0  0  0  0  0  0  0  0  0  0
  1  2  1  0
  1 27  1  1
  1 28  1  0
  1 29  1  0
  2  3  1  0
  3 26  2  0
  3  4  1  0
  4  5  2  0
  4 30  1  0
  5  6  1  0
  5 31  1  0
  6  7  1  0
  6 25  2  0
  7  8  2  0
  7  9  2  0
  7 10  1  6
 10 11  1  0
 10 18  1  0
 11 12  1  0
 11 32  1  6
 11 33  1  0
 12 13  2  0
 12 14  1  0
 14 15  1  0
 14 34  1  0
 15 17  1  0
 15 16  1  0
 15 35  1  1
 16 17  1  0
 16 36  1  6
 16 37  1  0
 17 38  1  6
 17 39  1  0
 18 19  1  0
 18 40  1  6
 18 41  1  0
 19 24  2  0
 19 20  1  0
 20 21  2  0
 20 42  1  0
 21 22  1  0
 21 43  1  0
 22 23  2  0
 22 44  1  0
 23 24  1  0
 23 45  1  0
 24 46  1  0
 25 26  1  0
 25 47  1  0
 26 48  1  0
M  END
$$$$
