ZINC000244983726
     RDKit          3D

 39 41  0  0  0  0  0  0  0  0999 V2000
    0.0021   -0.0041    0.0020 O   0  0  0  0  0  0  0  0  0  0  0  0
   -0.0172    1.4168    0.0098 S   0  0  1  0  0  0  0  0  0  0  0  0
    1.1617    2.2101    0.0028 O   0  0  0  0  0  0  0  0  0  0  0  0
   -0.9567    1.9094   -1.3970 C   0  0  0  0  0  0  0  0  0  0  0  0
   -1.8848    1.0442   -1.9458 C   0  0  0  0  0  0  0  0  0  0  0  0
   -2.6219    1.4307   -3.0496 C   0  0  0  0  0  0  0  0  0  0  0  0
   -2.4313    2.6825   -3.6042 C   0  0  0  0  0  0  0  0  0  0  0  0
   -3.2345    3.1036   -4.8078 C   0  0  1  0  0  0  0  0  0  0  0  0
   -4.4138    3.7273   -4.3864 F   0  0  0  0  0  0  0  0  0  0  0  0
   -2.4843    3.9973   -5.5796 F   0  0  0  0  0  0  0  0  0  0  0  0
   -3.5510    1.9771   -5.5746 F   0  0  0  0  0  0  0  0  0  0  0  0
   -1.5042    3.5481   -3.0546 C   0  0  0  0  0  0  0  0  0  0  0  0
   -0.7699    3.1631   -1.9485 C   0  0  0  0  0  0  0  0  0  0  0  0
   -0.8748    1.8654    1.3536 N   0  0  0  0  0  0  0  0  0  0  0  0
   -0.6802    3.1905    1.9578 C   0  0  1  0  0  0  0  0  0  0  0  0
   -2.0421    3.8813    2.0802 C   0  0  1  0  0  0  0  0  0  0  0  0
   -3.0026    2.9735    2.8519 C   0  0  1  0  0  0  0  0  0  0  0  0
   -4.2962    3.6449    2.9995 N   0  0  0  0  0  0  0  0  0  0  0  0
   -5.0396    4.0222    2.0203 N   0  0  0  0  0  0  0  0  0  0  0  0
   -6.1219    4.5870    2.5057 C   0  0  0  0  0  0  0  0  0  0  0  0
   -5.9923    4.5310    3.8954 C   0  0  0  0  0  0  0  0  0  0  0  0
   -4.8457    3.9325    4.1261 N   0  0  0  0  0  0  0  0  0  0  0  0
   -3.1933    1.6620    2.0865 C   0  0  1  0  0  0  0  0  0  0  0  0
   -1.8490    0.9483    1.9606 C   0  0  1  0  0  0  0  0  0  0  0  0
   -2.0336    0.0662   -1.5125 H   0  0  0  0  0  0  0  0  0  0  0  0
   -3.3464    0.7545   -3.4788 H   0  0  0  0  0  0  0  0  0  0  0  0
   -1.3556    4.5263   -3.4877 H   0  0  0  0  0  0  0  0  0  0  0  0
   -0.0456    3.8394   -1.5191 H   0  0  0  0  0  0  0  0  0  0  0  0
   -0.2367    3.0793    2.9473 H   0  0  0  0  0  0  0  0  0  0  0  0
   -0.0232    3.7875    1.3255 H   0  0  0  0  0  0  0  0  0  0  0  0
   -1.9249    4.8244    2.6141 H   0  0  0  0  0  0  0  0  0  0  0  0
   -2.4433    4.0734    1.0852 H   0  0  0  0  0  0  0  0  0  0  0  0
   -2.5888    2.7615    3.8377 H   0  0  0  0  0  0  0  0  0  0  0  0
   -6.9433    5.0084    1.9453 H   0  0  0  0  0  0  0  0  0  0  0  0
   -6.6931    4.9000    4.6296 H   0  0  0  0  0  0  0  0  0  0  0  0
   -3.8956    1.0254    2.6248 H   0  0  0  0  0  0  0  0  0  0  0  0
   -3.5837    1.8749    1.0914 H   0  0  0  0  0  0  0  0  0  0  0  0
   -1.9618    0.0648    1.3323 H   0  0  0  0  0  0  0  0  0  0  0  0
   -1.4977    0.6536    2.9494 H   0  0  0  0  0  0  0  0  0  0  0  0
  1  2  2  0
  2  3  2  0
  2  4  1  0
  2 14  1  1
  4 13  2  0
  4  5  1  0
  5  6  2  0
  5 25  1  0
  6  7  1  0
  6 26  1  0
  7  8  1  0
  7 12  2  0
  8  9  1  1
  8 10  1  0
  8 11  1  0
 12 13  1  0
 12 27  1  0
 13 28  1  0
 14 24  1  0
 14 15  1  0
 15 16  1  0
 15 29  1  1
 15 30  1  0
 16 17  1  0
 16 31  1  1
 16 32  1  0
 17 18  1  0
 17 23  1  0
 17 33  1  1
 18 22  1  0
 18 19  1  0
 19 20  2  0
 20 21  1  0
 20 34  1  0
 21 22  2  0
 21 35  1  0
 23 24  1  0
 23 36  1  1
 23 37  1  0
 24 38  1  6
 24 39  1  0
M  END
$$$$
