ZINC000003024932
     RDKit          3D

 53 55  0  0  1  0  0  0  0  0999 V2000
   -0.0263    1.5450   -0.0283 C   0  0  1  0  0  0  0  0  0  0  0  0
   -0.0091    0.0151   -0.0317 C   0  0  2  0  0  0  0  0  0  0  0  0
    0.5055   -0.3409   -0.9242 H   0  0  0  0  0  0  0  0  0  0  0  0
   -1.4458   -0.5119   -0.0261 C   0  0  1  0  0  0  0  0  0  0  0  0
   -1.4300   -2.0418   -0.0627 C   0  0  2  0  0  0  0  0  0  0  0  0
   -0.9018   -2.3789   -0.9546 H   0  0  0  0  0  0  0  0  0  0  0  0
   -2.8668   -2.5668   -0.0909 C   0  0  1  0  0  0  0  0  0  0  0  0
   -0.7160   -2.5710    1.1851 C   0  0  1  0  0  0  0  0  0  0  0  0
    0.6158   -1.9555    1.2647 N   0  0  0  0  0  0  0  0  0  0  0  0
    1.9723   -2.8947    1.4061 S   0  0  1  0  0  0  0  0  0  0  0  0
    2.9692   -2.0732    1.9983 O   0  0  0  0  0  0  0  0  0  0  0  0
    1.5486   -4.1296    1.9673 O   0  0  0  0  0  0  0  0  0  0  0  0
    2.5296   -3.2552   -0.2261 C   0  0  0  0  0  0  0  0  0  0  0  0
    2.0615   -4.3805   -0.8821 C   0  0  0  0  0  0  0  0  0  0  0  0
    2.4929   -4.6725   -2.1626 C   0  0  0  0  0  0  0  0  0  0  0  0
    3.3966   -3.8402   -2.7970 C   0  0  0  0  0  0  0  0  0  0  0  0
    3.8180   -4.1257   -4.0485 F   0  0  0  0  0  0  0  0  0  0  0  0
    3.8726   -2.7014   -2.1390 C   0  0  0  0  0  0  0  0  0  0  0  0
    4.8379   -1.8066   -2.8084 C   0  0  0  0  0  0  0  0  0  0  0  0
    5.2209   -2.0589   -3.9344 O   0  0  0  0  0  0  0  0  0  0  0  0
    5.2943   -0.7102   -2.1712 N   0  0  0  0  0  0  0  0  0  0  0  0
    6.2805    0.0839   -2.7650 C   0  0  0  0  0  0  0  0  0  0  0  0
    7.2486    0.6952   -1.9789 C   0  0  0  0  0  0  0  0  0  0  0  0
    8.2213    1.4785   -2.5685 C   0  0  0  0  0  0  0  0  0  0  0  0
    8.2318    1.6548   -3.9400 C   0  0  0  0  0  0  0  0  0  0  0  0
    9.2947    2.5102   -4.5800 C   0  0  1  0  0  0  0  0  0  0  0  0
   10.3980    1.7151   -4.9084 F   0  0  0  0  0  0  0  0  0  0  0  0
    8.7827    3.0996   -5.7408 F   0  0  0  0  0  0  0  0  0  0  0  0
    9.6903    3.5099   -3.6849 F   0  0  0  0  0  0  0  0  0  0  0  0
    7.2693    1.0476   -4.7256 C   0  0  0  0  0  0  0  0  0  0  0  0
    6.2972    0.2584   -4.1428 C   0  0  0  0  0  0  0  0  0  0  0  0
    3.4265   -2.4122   -0.8478 C   0  0  0  0  0  0  0  0  0  0  0  0
    0.7218   -0.4908    1.2160 C   0  0  1  0  0  0  0  0  0  0  0  0
    0.9972    1.9199   -0.0311 H   0  0  0  0  0  0  0  0  0  0  0  0
   -0.5474    1.9045   -0.9156 H   0  0  0  0  0  0  0  0  0  0  0  0
   -0.5410    1.9006    0.8644 H   0  0  0  0  0  0  0  0  0  0  0  0
   -1.9525   -0.1755    0.8785 H   0  0  0  0  0  0  0  0  0  0  0  0
   -1.9750   -0.1332   -0.9006 H   0  0  0  0  0  0  0  0  0  0  0  0
   -3.3748   -2.1877   -0.9777 H   0  0  0  0  0  0  0  0  0  0  0  0
   -2.8550   -3.6564   -0.1170 H   0  0  0  0  0  0  0  0  0  0  0  0
   -3.3942   -2.2304    0.8017 H   0  0  0  0  0  0  0  0  0  0  0  0
   -1.2920   -2.3117    2.0734 H   0  0  0  0  0  0  0  0  0  0  0  0
   -0.6144   -3.6541    1.1162 H   0  0  0  0  0  0  0  0  0  0  0  0
    1.3558   -5.0341   -0.3908 H   0  0  0  0  0  0  0  0  0  0  0  0
    2.1236   -5.5525   -2.6683 H   0  0  0  0  0  0  0  0  0  0  0  0
    4.9389   -0.4720   -1.3007 H   0  0  0  0  0  0  0  0  0  0  0  0
    7.2406    0.5585   -0.9076 H   0  0  0  0  0  0  0  0  0  0  0  0
    8.9744    1.9541   -1.9577 H   0  0  0  0  0  0  0  0  0  0  0  0
    7.2803    1.1873   -5.7965 H   0  0  0  0  0  0  0  0  0  0  0  0
    5.5460   -0.2158   -4.7570 H   0  0  0  0  0  0  0  0  0  0  0  0
    3.7898   -1.5346   -0.3338 H   0  0  0  0  0  0  0  0  0  0  0  0
    1.7717   -0.2018    1.1678 H   0  0  0  0  0  0  0  0  0  0  0  0
    0.2629   -0.0614    2.1066 H   0  0  0  0  0  0  0  0  0  0  0  0
  1  2  1  0
  1 34  1  6
  1 35  1  0
  1 36  1  0
  2  3  1  6
  2 33  1  0
  2  4  1  0
  4  5  1  0
  4 37  1  1
  4 38  1  0
  5  6  1  6
  5  7  1  0
  5  8  1  0
  7 39  1  6
  7 40  1  0
  7 41  1  0
  8  9  1  0
  8 42  1  1
  8 43  1  0
 10  9  1  6
  9 33  1  0
 10 11  2  0
 10 12  2  0
 10 13  1  0
 13 32  2  0
 13 14  1  0
 14 15  2  0
 14 44  1  0
 15 16  1  0
 15 45  1  0
 16 17  1  0
 16 18  2  0
 18 19  1  0
 18 32  1  0
 19 20  2  0
 19 21  1  0
 21 22  1  0
 21 46  1  0
 22 31  2  0
 22 23  1  0
 23 24  2  0
 23 47  1  0
 24 25  1  0
 24 48  1  0
 25 26  1  0
 25 30  2  0
 26 27  1  6
 26 28  1  0
 26 29  1  0
 30 31  1  0
 30 49  1  0
 31 50  1  0
 32 51  1  0
 33 52  1  6
 33 53  1  0
M  END
$$$$
