ZINC000032867737
     RDKit          3D

 46 47  0  0  1  0  0  0  0  0999 V2000
    0.0274    1.5273    0.0056 C   0  0  1  0  0  0  0  0  0  0  0  0
    0.0368   -0.0027   -0.0013 C   0  0  1  0  0  0  0  0  0  0  0  0
    0.7056   -0.4815   -1.2136 N   0  0  0  0  0  0  0  0  0  0  0  0
    2.1645   -0.6124   -1.2422 C   0  0  1  0  0  0  0  0  0  0  0  0
    2.5663   -1.9695   -0.6611 C   0  0  1  0  0  0  0  0  0  0  0  0
   -0.1875   -0.8749   -2.5515 S   0  0  1  0  0  0  0  0  0  0  0  0
    0.6016   -1.7829   -3.3079 O   0  0  0  0  0  0  0  0  0  0  0  0
   -1.4942   -1.1823   -2.0855 O   0  0  0  0  0  0  0  0  0  0  0  0
   -0.3375    0.5853   -3.5262 C   0  0  0  0  0  0  0  0  0  0  0  0
   -1.3980    1.4479   -3.3178 C   0  0  0  0  0  0  0  0  0  0  0  0
   -1.5185    2.5933   -4.0802 C   0  0  0  0  0  0  0  0  0  0  0  0
   -0.5729    2.8785   -5.0564 C   0  0  0  0  0  0  0  0  0  0  0  0
   -0.6918    4.0383   -5.8301 N   0  0  0  0  0  0  0  0  0  0  0  0
    0.3088    4.4902   -6.8040 C   0  0  1  0  0  0  0  0  0  0  0  0
   -0.0197    5.9755   -7.0733 C   0  0  1  0  0  0  0  0  0  0  0  0
    0.5506    6.6273   -6.4115 H   0  0  0  0  0  0  0  0  0  0  0  0
    0.2266    6.3291   -8.5174 C   0  0  0  0  0  0  0  0  0  0  0  0
    0.6291    5.4875   -9.2853 O   0  0  0  0  0  0  0  0  0  0  0  0
   -0.0012    7.5789   -8.9506 O   0  0  0  0  0  0  0  0  0  0  0  0
    0.2578    7.8477  -10.3538 C   0  0  1  0  0  0  0  0  0  0  0  0
   -1.5283    6.0304   -6.7388 C   0  0  1  0  0  0  0  0  0  0  0  0
   -1.7398    4.8786   -5.7810 C   0  0  0  0  0  0  0  0  0  0  0  0
   -2.7103    4.7379   -5.0673 O   0  0  0  0  0  0  0  0  0  0  0  0
    0.4912    2.0104   -5.2628 C   0  0  0  0  0  0  0  0  0  0  0  0
    0.6086    0.8691   -4.4939 C   0  0  0  0  0  0  0  0  0  0  0  0
    1.0526    1.8970   -0.0139 H   0  0  0  0  0  0  0  0  0  0  0  0
   -0.5068    1.8913   -0.8720 H   0  0  0  0  0  0  0  0  0  0  0  0
   -0.4702    1.8835    0.9075 H   0  0  0  0  0  0  0  0  0  0  0  0
    0.5710   -0.3667    0.8763 H   0  0  0  0  0  0  0  0  0  0  0  0
   -0.9884   -0.3724    0.0182 H   0  0  0  0  0  0  0  0  0  0  0  0
    2.5156   -0.5396   -2.2715 H   0  0  0  0  0  0  0  0  0  0  0  0
    2.6124    0.1842   -0.6482 H   0  0  0  0  0  0  0  0  0  0  0  0
    2.1183   -2.7661   -1.2550 H   0  0  0  0  0  0  0  0  0  0  0  0
    3.6517   -2.0669   -0.6824 H   0  0  0  0  0  0  0  0  0  0  0  0
    2.2151   -2.0423    0.3682 H   0  0  0  0  0  0  0  0  0  0  0  0
   -2.1331    1.2256   -2.5585 H   0  0  0  0  0  0  0  0  0  0  0  0
   -2.3474    3.2662   -3.9175 H   0  0  0  0  0  0  0  0  0  0  0  0
    1.3112    4.3953   -6.3866 H   0  0  0  0  0  0  0  0  0  0  0  0
    0.2266    3.9128   -7.7248 H   0  0  0  0  0  0  0  0  0  0  0  0
    1.3063    7.6478  -10.5745 H   0  0  0  0  0  0  0  0  0  0  0  0
   -0.3719    7.2051  -10.9691 H   0  0  0  0  0  0  0  0  0  0  0  0
    0.0335    8.8920  -10.5711 H   0  0  0  0  0  0  0  0  0  0  0  0
   -1.7790    6.9779   -6.2617 H   0  0  0  0  0  0  0  0  0  0  0  0
   -2.1244    5.8865   -7.6400 H   0  0  0  0  0  0  0  0  0  0  0  0
    1.2282    2.2294   -6.0213 H   0  0  0  0  0  0  0  0  0  0  0  0
    1.4359    0.1936   -4.6539 H   0  0  0  0  0  0  0  0  0  0  0  0
  1  2  1  0
  1 26  1  6
  1 27  1  0
  1 28  1  0
  2  3  1  0
  2 29  1  1
  2 30  1  0
  3  4  1  0
  6  3  1  1
  4  5  1  0
  4 31  1  6
  4 32  1  0
  5 33  1  6
  5 34  1  0
  5 35  1  0
  6  7  2  0
  6  8  2  0
  6  9  1  0
  9 25  2  0
  9 10  1  0
 10 11  2  0
 10 36  1  0
 11 12  1  0
 11 37  1  0
 12 13  1  0
 12 24  2  0
 13 22  1  0
 13 14  1  0
 14 15  1  0
 14 38  1  1
 14 39  1  0
 15 16  1  1
 15 17  1  0
 15 21  1  0
 17 18  2  0
 17 19  1  0
 19 20  1  0
 20 40  1  6
 20 41  1  0
 20 42  1  0
 21 22  1  0
 21 43  1  1
 21 44  1  0
 22 23  2  0
 24 25  1  0
 24 45  1  0
 25 46  1  0
M  END
$$$$
