ZINC000009462080
     RDKit          3D

 56 58  0  0  1  0  0  0  0  0999 V2000
   -0.0187    1.5258    0.0104 C   0  0  1  0  0  0  0  0  0  0  0  0
    0.0021   -0.0041    0.0020 C   0  0  1  0  0  0  0  0  0  0  0  0
    0.5293   -0.3651    0.8851 H   0  0  0  0  0  0  0  0  0  0  0  0
   -1.4333   -0.5336    0.0129 C   0  0  1  0  0  0  0  0  0  0  0  0
   -1.4133   -2.0590    0.1302 C   0  0  1  0  0  0  0  0  0  0  0  0
   -2.8271   -2.5806    0.1409 C   0  0  0  0  0  0  0  0  0  0  0  0
   -3.5022   -2.7230    1.3388 C   0  0  0  0  0  0  0  0  0  0  0  0
   -4.7990   -3.2015    1.3486 C   0  0  0  0  0  0  0  0  0  0  0  0
   -5.4209   -3.5371    0.1605 C   0  0  0  0  0  0  0  0  0  0  0  0
   -4.7461   -3.3939   -1.0374 C   0  0  0  0  0  0  0  0  0  0  0  0
   -3.4508   -2.9114   -1.0476 C   0  0  0  0  0  0  0  0  0  0  0  0
    0.6878   -0.4765   -1.2033 N   0  0  0  0  0  0  0  0  0  0  0  0
    2.0310   -0.5870   -1.2149 C   0  0  0  0  0  0  0  0  0  0  0  0
    2.6720   -0.2952   -0.2276 O   0  0  0  0  0  0  0  0  0  0  0  0
    2.7363   -1.0730   -2.4548 C   0  0  1  0  0  0  0  0  0  0  0  0
    4.1811   -1.1040   -2.2143 N   0  0  0  0  0  0  0  0  0  0  0  0
    4.7928   -2.2733   -1.5780 C   0  0  1  0  0  0  0  0  0  0  0  0
    5.0906   -3.3162   -2.6242 C   0  0  0  0  0  0  0  0  0  0  0  0
    6.2372   -3.4290   -3.3185 C   0  0  0  0  0  0  0  0  0  0  0  0
    6.0843   -4.5361   -4.1846 C   0  0  0  0  0  0  0  0  0  0  0  0
    4.8535   -5.0335   -3.9678 C   0  0  0  0  0  0  0  0  0  0  0  0
    4.2583   -4.2942   -3.0175 O   0  0  0  0  0  0  0  0  0  0  0  0
    5.1228    0.1827   -2.6616 S   0  0  1  0  0  0  0  0  0  0  0  0
    6.4404   -0.3229   -2.8274 O   0  0  0  0  0  0  0  0  0  0  0  0
    4.4147    0.8594   -3.6911 O   0  0  0  0  0  0  0  0  0  0  0  0
    5.1826    1.2871   -1.2899 C   0  0  0  0  0  0  0  0  0  0  0  0
    4.2323    2.2830   -1.1628 C   0  0  0  0  0  0  0  0  0  0  0  0
    4.2786    3.1496   -0.0871 C   0  0  0  0  0  0  0  0  0  0  0  0
    5.2763    3.0202    0.8626 C   0  0  0  0  0  0  0  0  0  0  0  0
    5.3349    4.1079    2.2143 Cl  0  0  0  0  0  0  0  0  0  0  0  0
    6.2271    2.0233    0.7348 C   0  0  0  0  0  0  0  0  0  0  0  0
    6.1764    1.1537   -0.3383 C   0  0  0  0  0  0  0  0  0  0  0  0
    1.0039    1.9031    0.0027 H   0  0  0  0  0  0  0  0  0  0  0  0
   -0.5459    1.8868   -0.8726 H   0  0  0  0  0  0  0  0  0  0  0  0
   -0.5289    1.8773    0.9072 H   0  0  0  0  0  0  0  0  0  0  0  0
   -1.9701   -0.1109    0.8621 H   0  0  0  0  0  0  0  0  0  0  0  0
   -1.9334   -0.2470   -0.9122 H   0  0  0  0  0  0  0  0  0  0  0  0
   -0.8764   -2.4817   -0.7190 H   0  0  0  0  0  0  0  0  0  0  0  0
   -0.9132   -2.3457    1.0553 H   0  0  0  0  0  0  0  0  0  0  0  0
   -3.0163   -2.4608    2.2670 H   0  0  0  0  0  0  0  0  0  0  0  0
   -5.3263   -3.3135    2.2845 H   0  0  0  0  0  0  0  0  0  0  0  0
   -6.4339   -3.9116    0.1683 H   0  0  0  0  0  0  0  0  0  0  0  0
   -5.2319   -3.6564   -1.9656 H   0  0  0  0  0  0  0  0  0  0  0  0
   -2.9236   -2.7994   -1.9835 H   0  0  0  0  0  0  0  0  0  0  0  0
    0.1751   -0.7099   -1.9930 H   0  0  0  0  0  0  0  0  0  0  0  0
    2.3875   -2.0757   -2.7018 H   0  0  0  0  0  0  0  0  0  0  0  0
    2.5204   -0.3987   -3.2836 H   0  0  0  0  0  0  0  0  0  0  0  0
    5.7195   -1.9764   -1.0868 H   0  0  0  0  0  0  0  0  0  0  0  0
    4.1059   -2.6857   -0.8390 H   0  0  0  0  0  0  0  0  0  0  0  0
    7.1073   -2.7952   -3.2315 H   0  0  0  0  0  0  0  0  0  0  0  0
    6.8154   -4.9103   -4.8859 H   0  0  0  0  0  0  0  0  0  0  0  0
    4.4191   -5.8854   -4.4698 H   0  0  0  0  0  0  0  0  0  0  0  0
    3.4537    2.3841   -1.9044 H   0  0  0  0  0  0  0  0  0  0  0  0
    3.5364    3.9278    0.0119 H   0  0  0  0  0  0  0  0  0  0  0  0
    7.0064    1.9220    1.4757 H   0  0  0  0  0  0  0  0  0  0  0  0
    6.9183    0.3753   -0.4379 H   0  0  0  0  0  0  0  0  0  0  0  0
  1  2  1  0
  1 33  1  6
  1 34  1  0
  1 35  1  0
  2  3  1  1
  2  4  1  0
  2 12  1  0
  4  5  1  0
  4 36  1  1
  4 37  1  0
  5  6  1  0
  5 38  1  6
  5 39  1  0
  6 11  2  0
  6  7  1  0
  7  8  2  0
  7 40  1  0
  8  9  1  0
  8 41  1  0
  9 10  2  0
  9 42  1  0
 10 11  1  0
 10 43  1  0
 11 44  1  0
 12 13  1  0
 12 45  1  0
 13 14  2  0
 13 15  1  0
 15 16  1  0
 15 46  1  6
 15 47  1  0
 16 17  1  0
 23 16  1  1
 17 18  1  0
 17 48  1  1
 17 49  1  0
 18 22  1  0
 18 19  2  0
 19 20  1  0
 19 50  1  0
 20 21  2  0
 20 51  1  0
 21 22  1  0
 21 52  1  0
 23 24  2  0
 23 25  2  0
 23 26  1  0
 26 32  2  0
 26 27  1  0
 27 28  2  0
 27 53  1  0
 28 29  1  0
 28 54  1  0
 29 30  1  0
 29 31  2  0
 31 32  1  0
 31 55  1  0
 32 56  1  0
M  END
$$$$
