ZINC000408606282
     RDKit          3D

 67 69  0  0  0  0  0  0  0  0999 V2000
    1.0260   -5.8997  -10.0417 C   0  0  1  0  0  0  0  0  0  0  0  0
    1.5296   -4.5676   -9.9242 O   0  0  0  0  0  0  0  0  0  0  0  0
    1.7785   -4.1102   -8.6680 C   0  0  0  0  0  0  0  0  0  0  0  0
    1.5487   -4.9275   -7.5734 C   0  0  0  0  0  0  0  0  0  0  0  0
    1.8028   -4.4610   -6.2967 C   0  0  0  0  0  0  0  0  0  0  0  0
    2.2856   -3.1796   -6.1092 C   0  0  0  0  0  0  0  0  0  0  0  0
    2.6068   -2.5910   -4.4798 S   0  0  1  0  0  0  0  0  0  0  0  0
    2.5221   -1.1738   -4.5411 O   0  0  0  0  0  0  0  0  0  0  0  0
    1.8128   -3.3799   -3.6043 O   0  0  0  0  0  0  0  0  0  0  0  0
    4.1853   -2.9504   -4.1310 N   0  0  0  0  0  0  0  0  0  0  0  0
    4.5399   -4.2799   -3.6281 C   0  0  1  0  0  0  0  0  0  0  0  0
    4.9711   -5.1534   -4.7780 C   0  0  0  0  0  0  0  0  0  0  0  0
    4.9812   -4.7090   -5.9065 O   0  0  0  0  0  0  0  0  0  0  0  0
    5.3455   -6.4283   -4.5524 N   0  0  0  0  0  0  0  0  0  0  0  0
    5.7647   -7.2773   -5.6702 C   0  0  1  0  0  0  0  0  0  0  0  0
    7.2495   -7.0457   -5.9576 C   0  0  1  0  0  0  0  0  0  0  0  0
    7.7839   -8.1845   -6.8286 C   0  0  1  0  0  0  0  0  0  0  0  0
    7.3093   -7.9898   -8.2701 C   0  0  1  0  0  0  0  0  0  0  0  0
    5.8348   -8.3830   -8.3788 C   0  0  1  0  0  0  0  0  0  0  0  0
    5.5974   -9.6899   -7.6198 C   0  0  1  0  0  0  0  0  0  0  0  0
    4.7091   -9.4197   -6.4037 C   0  0  1  0  0  0  0  0  0  0  0  0
    5.5377   -8.7462   -5.3078 C   0  0  1  0  0  0  0  0  0  0  0  0
    5.2271   -1.9389   -4.3253 C   0  0  1  0  0  0  0  0  0  0  0  0
    5.4921   -1.2336   -3.0201 C   0  0  0  0  0  0  0  0  0  0  0  0
    4.8523   -0.0415   -2.7364 C   0  0  0  0  0  0  0  0  0  0  0  0
    5.0954    0.6054   -1.5392 C   0  0  0  0  0  0  0  0  0  0  0  0
    5.9779    0.0601   -0.6256 C   0  0  0  0  0  0  0  0  0  0  0  0
    6.6170   -1.1325   -0.9090 C   0  0  0  0  0  0  0  0  0  0  0  0
    6.3706   -1.7816   -2.1043 C   0  0  0  0  0  0  0  0  0  0  0  0
    2.5177   -2.3587   -7.1975 C   0  0  0  0  0  0  0  0  0  0  0  0
    2.2702   -2.8217   -8.4795 C   0  0  0  0  0  0  0  0  0  0  0  0
    2.4979   -2.0156   -9.5509 O   0  0  0  0  0  0  0  0  0  0  0  0
    2.9928   -0.7024   -9.2812 C   0  0  1  0  0  0  0  0  0  0  0  0
    1.7438   -6.5987   -9.6124 H   0  0  0  0  0  0  0  0  0  0  0  0
    0.0787   -5.9784   -9.5083 H   0  0  0  0  0  0  0  0  0  0  0  0
    0.8714   -6.1382  -11.0940 H   0  0  0  0  0  0  0  0  0  0  0  0
    1.1707   -5.9289   -7.7172 H   0  0  0  0  0  0  0  0  0  0  0  0
    1.6232   -5.0992   -5.4441 H   0  0  0  0  0  0  0  0  0  0  0  0
    5.3573   -4.1916   -2.9125 H   0  0  0  0  0  0  0  0  0  0  0  0
    3.6744   -4.7257   -3.1379 H   0  0  0  0  0  0  0  0  0  0  0  0
    5.3375   -6.7836   -3.6499 H   0  0  0  0  0  0  0  0  0  0  0  0
    5.1802   -7.0271   -6.5555 H   0  0  0  0  0  0  0  0  0  0  0  0
    7.3746   -6.0980   -6.4814 H   0  0  0  0  0  0  0  0  0  0  0  0
    7.8013   -7.0171   -5.0180 H   0  0  0  0  0  0  0  0  0  0  0  0
    8.8736   -8.1821   -6.8014 H   0  0  0  0  0  0  0  0  0  0  0  0
    7.4131   -9.1367   -6.4494 H   0  0  0  0  0  0  0  0  0  0  0  0
    7.4284   -6.9441   -8.5538 H   0  0  0  0  0  0  0  0  0  0  0  0
    7.9026   -8.6167   -8.9358 H   0  0  0  0  0  0  0  0  0  0  0  0
    5.2162   -7.5955   -7.9483 H   0  0  0  0  0  0  0  0  0  0  0  0
    5.5715   -8.5191   -9.4277 H   0  0  0  0  0  0  0  0  0  0  0  0
    5.1055  -10.4073   -8.2768 H   0  0  0  0  0  0  0  0  0  0  0  0
    6.5530  -10.0964   -7.2886 H   0  0  0  0  0  0  0  0  0  0  0  0
    3.8872   -8.7646   -6.6924 H   0  0  0  0  0  0  0  0  0  0  0  0
    4.3089  -10.3619   -6.0294 H   0  0  0  0  0  0  0  0  0  0  0  0
    6.4995   -9.2510   -5.2175 H   0  0  0  0  0  0  0  0  0  0  0  0
    5.0043   -8.8081   -4.3592 H   0  0  0  0  0  0  0  0  0  0  0  0
    6.1418   -2.4210   -4.6700 H   0  0  0  0  0  0  0  0  0  0  0  0
    4.8957   -1.2143   -5.0691 H   0  0  0  0  0  0  0  0  0  0  0  0
    4.1628    0.3846   -3.4501 H   0  0  0  0  0  0  0  0  0  0  0  0
    4.5961    1.5372   -1.3178 H   0  0  0  0  0  0  0  0  0  0  0  0
    6.1683    0.5659    0.3095 H   0  0  0  0  0  0  0  0  0  0  0  0
    7.3067   -1.5584   -0.1953 H   0  0  0  0  0  0  0  0  0  0  0  0
    6.8699   -2.7133   -2.3257 H   0  0  0  0  0  0  0  0  0  0  0  0
    2.8950   -1.3579   -7.0483 H   0  0  0  0  0  0  0  0  0  0  0  0
    3.9475   -0.7738   -8.7603 H   0  0  0  0  0  0  0  0  0  0  0  0
    3.1303   -0.1661  -10.2202 H   0  0  0  0  0  0  0  0  0  0  0  0
    2.2778   -0.1657   -8.6576 H   0  0  0  0  0  0  0  0  0  0  0  0
  1  2  1  0
  1 34  1  1
  1 35  1  0
  1 36  1  0
  2  3  1  0
  3 31  2  0
  3  4  1  0
  4  5  2  0
  4 37  1  0
  5  6  1  0
  5 38  1  0
  6  7  1  0
  6 30  2  0
  7  8  2  0
  7  9  2  0
  7 10  1  1
 10 11  1  0
 10 23  1  0
 11 12  1  0
 11 39  1  1
 11 40  1  0
 12 13  2  0
 12 14  1  0
 14 15  1  0
 14 41  1  0
 15 22  1  0
 15 16  1  0
 15 42  1  6
 16 17  1  0
 16 43  1  6
 16 44  1  0
 17 18  1  0
 17 45  1  6
 17 46  1  0
 18 19  1  0
 18 47  1  6
 18 48  1  0
 19 20  1  0
 19 49  1  1
 19 50  1  0
 20 21  1  0
 20 51  1  6
 20 52  1  0
 21 22  1  0
 21 53  1  6
 21 54  1  0
 22 55  1  1
 22 56  1  0
 23 24  1  0
 23 57  1  6
 23 58  1  0
 24 29  2  0
 24 25  1  0
 25 26  2  0
 25 59  1  0
 26 27  1  0
 26 60  1  0
 27 28  2  0
 27 61  1  0
 28 29  1  0
 28 62  1  0
 29 63  1  0
 30 31  1  0
 30 64  1  0
 31 32  1  0
 32 33  1  0
 33 65  1  1
 33 66  1  0
 33 67  1  0
M  END
$$$$
