ZINC000003024936
     RDKit          3D

 53 55  0  0  1  0  0  0  0  0999 V2000
   -0.0391    1.5419   -0.0071 C   0  0  1  0  0  0  0  0  0  0  0  0
   -0.0245    0.0120   -0.0237 C   0  0  1  0  0  0  0  0  0  0  0  0
   -1.0484   -0.3617   -0.0155 H   0  0  0  0  0  0  0  0  0  0  0  0
    0.6881   -0.4783   -1.2863 C   0  0  1  0  0  0  0  0  0  0  0  0
    2.1152    0.0735   -1.3155 C   0  0  2  0  0  0  0  0  0  0  0  0
    2.0847    1.1628   -1.2914 H   0  0  0  0  0  0  0  0  0  0  0  0
    2.8157   -0.3896   -2.5944 C   0  0  1  0  0  0  0  0  0  0  0  0
    2.8834   -0.4435   -0.0950 C   0  0  1  0  0  0  0  0  0  0  0  0
    2.1289   -0.1014    1.1184 N   0  0  0  0  0  0  0  0  0  0  0  0
    2.8532    0.7246    2.3575 S   0  0  1  0  0  0  0  0  0  0  0  0
    2.1096    0.4221    3.5300 O   0  0  0  0  0  0  0  0  0  0  0  0
    4.2486    0.4840    2.2385 O   0  0  0  0  0  0  0  0  0  0  0  0
    2.6163    2.4429    2.0476 C   0  0  0  0  0  0  0  0  0  0  0  0
    3.5478    3.1440    1.3014 C   0  0  0  0  0  0  0  0  0  0  0  0
    3.3715    4.4925    1.0529 C   0  0  0  0  0  0  0  0  0  0  0  0
    2.2612    5.1502    1.5495 C   0  0  0  0  0  0  0  0  0  0  0  0
    2.0891    6.4680    1.3067 F   0  0  0  0  0  0  0  0  0  0  0  0
    1.3165    4.4464    2.3038 C   0  0  0  0  0  0  0  0  0  0  0  0
    0.1277    5.1403    2.8384 C   0  0  0  0  0  0  0  0  0  0  0  0
   -0.0320    6.3262    2.6232 O   0  0  0  0  0  0  0  0  0  0  0  0
   -0.7804    4.4589    3.5647 N   0  0  0  0  0  0  0  0  0  0  0  0
   -1.8548    5.1342    4.1524 C   0  0  0  0  0  0  0  0  0  0  0  0
   -2.3376    4.7299    5.3904 C   0  0  0  0  0  0  0  0  0  0  0  0
   -3.3985    5.3992    5.9682 C   0  0  0  0  0  0  0  0  0  0  0  0
   -3.9803    6.4705    5.3154 C   0  0  0  0  0  0  0  0  0  0  0  0
   -5.1377    7.1985    5.9490 C   0  0  1  0  0  0  0  0  0  0  0  0
   -4.6532    8.2448    6.7413 F   0  0  0  0  0  0  0  0  0  0  0  0
   -5.9667    7.7167    4.9482 F   0  0  0  0  0  0  0  0  0  0  0  0
   -5.8678    6.3099    6.7455 F   0  0  0  0  0  0  0  0  0  0  0  0
   -3.5020    6.8755    4.0828 C   0  0  0  0  0  0  0  0  0  0  0  0
   -2.4377    6.2141    3.5021 C   0  0  0  0  0  0  0  0  0  0  0  0
    1.5008    3.0834    2.5445 C   0  0  0  0  0  0  0  0  0  0  0  0
    0.7187   -0.5057    1.2117 C   0  0  1  0  0  0  0  0  0  0  0  0
    0.9850    1.9151   -0.0153 H   0  0  0  0  0  0  0  0  0  0  0  0
   -0.5670    1.9098   -0.8869 H   0  0  0  0  0  0  0  0  0  0  0  0
   -0.5457    1.8906    0.8928 H   0  0  0  0  0  0  0  0  0  0  0  0
    0.7199   -1.5678   -1.2853 H   0  0  0  0  0  0  0  0  0  0  0  0
    0.1467   -0.1318   -2.1666 H   0  0  0  0  0  0  0  0  0  0  0  0
    2.2671   -0.0235   -3.4622 H   0  0  0  0  0  0  0  0  0  0  0  0
    3.8321    0.0036   -2.6148 H   0  0  0  0  0  0  0  0  0  0  0  0
    2.8471   -1.4789   -2.6174 H   0  0  0  0  0  0  0  0  0  0  0  0
    2.9933   -1.5258   -0.1640 H   0  0  0  0  0  0  0  0  0  0  0  0
    3.8673    0.0241   -0.0575 H   0  0  0  0  0  0  0  0  0  0  0  0
    4.4169    2.6350    0.9115 H   0  0  0  0  0  0  0  0  0  0  0  0
    4.1025    5.0333    0.4702 H   0  0  0  0  0  0  0  0  0  0  0  0
   -0.6887    3.5001    3.6799 H   0  0  0  0  0  0  0  0  0  0  0  0
   -1.8842    3.8929    5.9004 H   0  0  0  0  0  0  0  0  0  0  0  0
   -3.7744    5.0854    6.9308 H   0  0  0  0  0  0  0  0  0  0  0  0
   -3.9585    7.7126    3.5755 H   0  0  0  0  0  0  0  0  0  0  0  0
   -2.0643    6.5312    2.5395 H   0  0  0  0  0  0  0  0  0  0  0  0
    0.7755    2.5338    3.1261 H   0  0  0  0  0  0  0  0  0  0  0  0
    0.2750   -0.0790    2.1113 H   0  0  0  0  0  0  0  0  0  0  0  0
    0.6520   -1.5930    1.2494 H   0  0  0  0  0  0  0  0  0  0  0  0
  1  2  1  0
  1 34  1  1
  1 35  1  0
  1 36  1  0
  2  3  1  6
  2 33  1  0
  2  4  1  0
  4  5  1  0
  4 37  1  1
  4 38  1  0
  5  6  1  1
  5  7  1  0
  5  8  1  0
  7 39  1  6
  7 40  1  0
  7 41  1  0
  8  9  1  0
  8 42  1  6
  8 43  1  0
 10  9  1  6
  9 33  1  0
 10 11  2  0
 10 12  2  0
 10 13  1  0
 13 32  2  0
 13 14  1  0
 14 15  2  0
 14 44  1  0
 15 16  1  0
 15 45  1  0
 16 17  1  0
 16 18  2  0
 18 19  1  0
 18 32  1  0
 19 20  2  0
 19 21  1  0
 21 22  1  0
 21 46  1  0
 22 31  2  0
 22 23  1  0
 23 24  2  0
 23 47  1  0
 24 25  1  0
 24 48  1  0
 25 26  1  0
 25 30  2  0
 26 27  1  1
 26 28  1  0
 26 29  1  0
 30 31  1  0
 30 49  1  0
 31 50  1  0
 32 51  1  0
 33 52  1  1
 33 53  1  0
M  END
$$$$
