ZINC000012622968
     RDKit          3D

 40 41  0  0  1  0  0  0  0  0999 V2000
    1.0675   -2.1418   -3.0210 C   0  0  1  0  0  0  0  0  0  0  0  0
    0.5969   -1.9864   -1.6562 O   0  0  0  0  0  0  0  0  0  0  0  0
   -0.7121   -2.1863   -1.4365 C   0  0  0  0  0  0  0  0  0  0  0  0
   -1.4236   -2.5705   -2.3342 O   0  0  0  0  0  0  0  0  0  0  0  0
   -1.2943   -1.9315   -0.0700 C   0  0  1  0  0  0  0  0  0  0  0  0
   -2.7501   -2.4011   -0.0403 C   0  0  1  0  0  0  0  0  0  0  0  0
   -3.2949   -1.9540   -0.8719 H   0  0  0  0  0  0  0  0  0  0  0  0
   -2.7984   -3.9004   -0.1542 C   0  0  0  0  0  0  0  0  0  0  0  0
   -2.5498   -4.4073   -1.2276 O   0  0  0  0  0  0  0  0  0  0  0  0
   -3.1025   -4.6978    0.8709 N   0  0  0  0  0  0  0  0  0  0  0  0
   -3.5088   -4.2310    2.1893 C   0  0  1  0  0  0  0  0  0  0  0  0
   -3.0381   -2.7946    2.4253 C   0  0  1  0  0  0  0  0  0  0  0  0
   -3.3720   -1.9974    1.2296 N   0  0  0  0  0  0  0  0  0  0  0  0
   -4.4032   -0.7046    1.3164 S   0  0  1  0  0  0  0  0  0  0  0  0
   -5.0193   -0.5964    0.0405 O   0  0  0  0  0  0  0  0  0  0  0  0
   -5.1372   -0.8571    2.5235 O   0  0  0  0  0  0  0  0  0  0  0  0
   -3.4135    0.7396    1.5150 C   0  0  0  0  0  0  0  0  0  0  0  0
   -2.9894    1.1190    2.7748 C   0  0  0  0  0  0  0  0  0  0  0  0
   -2.2129    2.2520    2.9307 C   0  0  0  0  0  0  0  0  0  0  0  0
   -1.8602    3.0054    1.8266 C   0  0  0  0  0  0  0  0  0  0  0  0
   -1.0141    4.2408    1.9966 C   0  0  1  0  0  0  0  0  0  0  0  0
    0.3385    3.8964    1.9018 F   0  0  0  0  0  0  0  0  0  0  0  0
   -1.3314    5.1647    0.9951 F   0  0  0  0  0  0  0  0  0  0  0  0
   -1.2640    4.8083    3.2507 F   0  0  0  0  0  0  0  0  0  0  0  0
   -2.2831    2.6252    0.5667 C   0  0  0  0  0  0  0  0  0  0  0  0
   -3.0564    1.4901    0.4104 C   0  0  0  0  0  0  0  0  0  0  0  0
    2.1210   -1.8675   -3.0755 H   0  0  0  0  0  0  0  0  0  0  0  0
    0.9458   -3.1796   -3.3313 H   0  0  0  0  0  0  0  0  0  0  0  0
    0.4890   -1.4951   -3.6807 H   0  0  0  0  0  0  0  0  0  0  0  0
   -0.7204   -2.4795    0.6773 H   0  0  0  0  0  0  0  0  0  0  0  0
   -1.2520   -0.8648    0.1498 H   0  0  0  0  0  0  0  0  0  0  0  0
   -3.0489   -5.6558    0.7283 H   0  0  0  0  0  0  0  0  0  0  0  0
   -4.5955   -4.2694    2.2643 H   0  0  0  0  0  0  0  0  0  0  0  0
   -3.0743   -4.8804    2.9494 H   0  0  0  0  0  0  0  0  0  0  0  0
   -3.5455   -2.3797    3.2962 H   0  0  0  0  0  0  0  0  0  0  0  0
   -1.9602   -2.7826    2.5865 H   0  0  0  0  0  0  0  0  0  0  0  0
   -3.2650    0.5304    3.6374 H   0  0  0  0  0  0  0  0  0  0  0  0
   -1.8822    2.5488    3.9150 H   0  0  0  0  0  0  0  0  0  0  0  0
   -2.0072    3.2136   -0.2959 H   0  0  0  0  0  0  0  0  0  0  0  0
   -3.3868    1.1931   -0.5740 H   0  0  0  0  0  0  0  0  0  0  0  0
  1  2  1  0
  1 27  1  1
  1 28  1  0
  1 29  1  0
  2  3  1  0
  3  4  2  0
  3  5  1  0
  5  6  1  0
  5 30  1  1
  5 31  1  0
  6  7  1  6
  6 13  1  0
  6  8  1  0
  8  9  2  0
  8 10  1  0
 10 11  1  0
 10 32  1  0
 11 12  1  0
 11 33  1  6
 11 34  1  0
 12 13  1  0
 12 35  1  1
 12 36  1  0
 14 13  1  6
 14 15  2  0
 14 16  2  0
 14 17  1  0
 17 26  2  0
 17 18  1  0
 18 19  2  0
 18 37  1  0
 19 20  1  0
 19 38  1  0
 20 21  1  0
 20 25  2  0
 21 22  1  1
 21 23  1  0
 21 24  1  0
 25 26  1  0
 25 39  1  0
 26 40  1  0
M  END
$$$$
