ZINC000299804013
     RDKit          3D

 30 31  0  0  1  0  0  0  0  0999 V2000
    0.0021   -0.0041    0.0020 O   0  0  0  0  0  0  0  0  0  0  0  0
   -0.0145    1.2150    0.0087 C   0  0  0  0  0  0  0  0  0  0  0  0
    1.0330    1.8389    0.0021 O   0  0  0  0  0  0  0  0  0  0  0  0
   -1.3296    1.9507    0.0190 C   0  0  1  0  0  0  0  0  0  0  0  0
   -1.2256    2.9114    0.5234 H   0  0  0  0  0  0  0  0  0  0  0  0
   -1.8503    2.1479   -1.4180 C   0  0  1  0  0  0  0  0  0  0  0  0
   -3.1303    1.4239   -1.4314 N   0  0  0  0  0  0  0  0  0  0  0  0
   -3.3447    0.8869   -0.2232 C   0  0  0  0  0  0  0  0  0  0  0  0
   -4.3334    0.2320    0.0453 O   0  0  0  0  0  0  0  0  0  0  0  0
   -2.3706    1.1381    0.6659 N   0  0  0  0  0  0  0  0  0  0  0  0
   -2.3489    0.6738    2.0552 C   0  0  1  0  0  0  0  0  0  0  0  0
   -1.6668   -0.6681    2.1258 C   0  0  0  0  0  0  0  0  0  0  0  0
   -2.4064   -1.8276    1.9871 C   0  0  0  0  0  0  0  0  0  0  0  0
   -1.7807   -3.0585    2.0519 C   0  0  0  0  0  0  0  0  0  0  0  0
   -0.4152   -3.1299    2.2549 C   0  0  0  0  0  0  0  0  0  0  0  0
    0.2669   -4.4718    2.3260 C   0  0  1  0  0  0  0  0  0  0  0  0
    0.6734   -4.8568    1.0439 F   0  0  0  0  0  0  0  0  0  0  0  0
    1.3846   -4.3831    3.1626 F   0  0  0  0  0  0  0  0  0  0  0  0
   -0.6242   -5.4214    2.8374 F   0  0  0  0  0  0  0  0  0  0  0  0
    0.3247   -1.9704    2.3922 C   0  0  0  0  0  0  0  0  0  0  0  0
   -0.3005   -0.7394    2.3237 C   0  0  0  0  0  0  0  0  0  0  0  0
   -2.0072    3.2062   -1.6262 H   0  0  0  0  0  0  0  0  0  0  0  0
   -1.1576    1.7137   -2.1389 H   0  0  0  0  0  0  0  0  0  0  0  0
   -3.7248    1.3475   -2.1940 H   0  0  0  0  0  0  0  0  0  0  0  0
   -1.8045    1.3909    2.6696 H   0  0  0  0  0  0  0  0  0  0  0  0
   -3.3707    0.5818    2.4236 H   0  0  0  0  0  0  0  0  0  0  0  0
   -3.4733   -1.7719    1.8285 H   0  0  0  0  0  0  0  0  0  0  0  0
   -2.3587   -3.9645    1.9442 H   0  0  0  0  0  0  0  0  0  0  0  0
    1.3916   -2.0261    2.5505 H   0  0  0  0  0  0  0  0  0  0  0  0
    0.2776    0.1666    2.4310 H   0  0  0  0  0  0  0  0  0  0  0  0
  1  2  2  0
  2  3  1  0
  2  4  1  0
  4  5  1  1
  4 10  1  0
  4  6  1  0
  6  7  1  0
  6 22  1  6
  6 23  1  0
  7  8  1  0
  7 24  1  0
  8  9  2  0
  8 10  1  0
 10 11  1  0
 11 12  1  0
 11 25  1  1
 11 26  1  0
 12 21  2  0
 12 13  1  0
 13 14  2  0
 13 27  1  0
 14 15  1  0
 14 28  1  0
 15 16  1  0
 15 20  2  0
 16 17  1  6
 16 18  1  0
 16 19  1  0
 20 21  1  0
 20 29  1  0
 21 30  1  0
M  END
$$$$
