ZINC000040059737
     RDKit          3D

 45 48  0  0  1  0  0  0  0  0999 V2000
   -0.3104   -0.3925   -0.0407 O   0  0  0  0  0  0  0  0  0  0  0  0
   -0.1237    1.0129   -0.1361 S   0  0  1  0  0  0  0  0  0  0  0  0
    1.1535    1.6193   -0.2791 O   0  0  0  0  0  0  0  0  0  0  0  0
   -1.0865    1.5507   -1.5102 C   0  0  0  0  0  0  0  0  0  0  0  0
   -2.1688    0.8010   -1.9315 C   0  0  0  0  0  0  0  0  0  0  0  0
   -2.9242    1.2228   -3.0096 C   0  0  0  0  0  0  0  0  0  0  0  0
   -2.5976    2.3947   -3.6661 C   0  0  0  0  0  0  0  0  0  0  0  0
   -3.4208    2.8544   -4.8417 C   0  0  1  0  0  0  0  0  0  0  0  0
   -4.4622    3.6724   -4.3905 F   0  0  0  0  0  0  0  0  0  0  0  0
   -2.6104    3.5757   -5.7250 F   0  0  0  0  0  0  0  0  0  0  0  0
   -3.9542    1.7417   -5.5011 F   0  0  0  0  0  0  0  0  0  0  0  0
   -1.5162    3.1451   -3.2440 C   0  0  0  0  0  0  0  0  0  0  0  0
   -0.7631    2.7252   -2.1635 C   0  0  0  0  0  0  0  0  0  0  0  0
   -0.8027    1.6683    1.2247 N   0  0  0  0  0  0  0  0  0  0  0  0
   -0.3790    2.9854    1.7230 C   0  0  1  0  0  0  0  0  0  0  0  0
   -1.5579    3.9607    1.6414 C   0  0  1  0  0  0  0  0  0  0  0  0
   -2.7589    3.3133    2.1807 N   0  0  0  0  0  0  0  0  0  0  0  0
   -3.8956    3.9264    2.6097 C   0  0  0  0  0  0  0  0  0  0  0  0
   -4.7605    2.9749    3.0197 C   0  0  0  0  0  0  0  0  0  0  0  0
   -4.1318    1.7252    2.8394 C   0  0  0  0  0  0  0  0  0  0  0  0
   -2.9127    1.9618    2.3305 C   0  0  0  0  0  0  0  0  0  0  0  0
   -1.8545    0.9510    1.9692 C   0  0  2  0  0  0  0  0  0  0  0  0
   -2.2851    0.1693    1.3435 H   0  0  0  0  0  0  0  0  0  0  0  0
   -1.2730    0.3456    3.2207 C   0  0  0  0  0  0  0  0  0  0  0  0
   -1.2625   -1.0270    3.3840 C   0  0  0  0  0  0  0  0  0  0  0  0
   -0.7291   -1.5824    4.5320 C   0  0  0  0  0  0  0  0  0  0  0  0
   -0.2057   -0.7652    5.5164 C   0  0  0  0  0  0  0  0  0  0  0  0
   -0.2153    0.6074    5.3527 C   0  0  0  0  0  0  0  0  0  0  0  0
   -0.7449    1.1625    4.2028 C   0  0  0  0  0  0  0  0  0  0  0  0
   -2.4239   -0.1146   -1.4186 H   0  0  0  0  0  0  0  0  0  0  0  0
   -3.7693    0.6367   -3.3392 H   0  0  0  0  0  0  0  0  0  0  0  0
   -1.2612    4.0609   -3.7566 H   0  0  0  0  0  0  0  0  0  0  0  0
    0.0818    3.3115   -1.8337 H   0  0  0  0  0  0  0  0  0  0  0  0
   -0.0528    2.8947    2.7591 H   0  0  0  0  0  0  0  0  0  0  0  0
    0.4441    3.3576    1.1131 H   0  0  0  0  0  0  0  0  0  0  0  0
   -1.3327    4.8537    2.2245 H   0  0  0  0  0  0  0  0  0  0  0  0
   -1.7297    4.2379    0.6013 H   0  0  0  0  0  0  0  0  0  0  0  0
   -4.0747    4.9914    2.6205 H   0  0  0  0  0  0  0  0  0  0  0  0
   -5.7524    3.1401    3.4138 H   0  0  0  0  0  0  0  0  0  0  0  0
   -4.5534    0.7575    3.0679 H   0  0  0  0  0  0  0  0  0  0  0  0
   -1.6715   -1.6655    2.6149 H   0  0  0  0  0  0  0  0  0  0  0  0
   -0.7216   -2.6548    4.6600 H   0  0  0  0  0  0  0  0  0  0  0  0
    0.2104   -1.1991    6.4137 H   0  0  0  0  0  0  0  0  0  0  0  0
    0.1933    1.2459    6.1219 H   0  0  0  0  0  0  0  0  0  0  0  0
   -0.7524    2.2349    4.0748 H   0  0  0  0  0  0  0  0  0  0  0  0
  1  2  2  0
  2  3  2  0
  2  4  1  0
  2 14  1  1
  4 13  2  0
  4  5  1  0
  5  6  2  0
  5 30  1  0
  6  7  1  0
  6 31  1  0
  7  8  1  0
  7 12  2  0
  8  9  1  1
  8 10  1  0
  8 11  1  0
 12 13  1  0
 12 32  1  0
 13 33  1  0
 14 22  1  0
 14 15  1  0
 15 16  1  0
 15 34  1  1
 15 35  1  0
 16 17  1  0
 16 36  1  1
 16 37  1  0
 17 21  1  0
 17 18  1  0
 18 19  2  0
 18 38  1  0
 19 20  1  0
 19 39  1  0
 20 21  2  0
 20 40  1  0
 21 22  1  0
 22 23  1  6
 22 24  1  0
 24 29  2  0
 24 25  1  0
 25 26  2  0
 25 41  1  0
 26 27  1  0
 26 42  1  0
 27 28  2  0
 27 43  1  0
 28 29  1  0
 28 44  1  0
 29 45  1  0
M  END
$$$$
