ZINC000028208292
     RDKit          3D

 45 45  0  0  1  0  0  0  0  0999 V2000
   -0.0187    1.5258    0.0104 C   0  0  1  0  0  0  0  0  0  0  0  0
    0.0021   -0.0041    0.0020 C   0  0  1  0  0  0  0  0  0  0  0  0
    0.7182   -0.4975   -1.2568 C   0  0  1  0  0  0  0  0  0  0  0  0
    1.7103   -0.0491   -1.3098 H   0  0  0  0  0  0  0  0  0  0  0  0
    0.8493   -2.0210   -1.2049 C   0  0  1  0  0  0  0  0  0  0  0  0
   -0.0549   -0.1139   -2.4405 N   0  0  0  0  0  0  0  0  0  0  0  0
    0.5610    0.0279   -3.6309 C   0  0  0  0  0  0  0  0  0  0  0  0
    1.7554   -0.1622   -3.7221 O   0  0  0  0  0  0  0  0  0  0  0  0
   -0.2343    0.4225   -4.8486 C   0  0  1  0  0  0  0  0  0  0  0  0
    0.6974    0.5131   -6.0589 C   0  0  1  0  0  0  0  0  0  0  0  0
   -0.0980    0.9078   -7.2766 C   0  0  0  0  0  0  0  0  0  0  0  0
   -0.6697   -0.0659   -8.0741 C   0  0  0  0  0  0  0  0  0  0  0  0
   -1.3992    0.2961   -9.1910 C   0  0  0  0  0  0  0  0  0  0  0  0
   -1.5574    1.6318   -9.5103 C   0  0  0  0  0  0  0  0  0  0  0  0
   -2.4868    2.0931  -10.9343 S   0  0  1  0  0  0  0  0  0  0  0  0
   -2.0301    3.3851  -11.3103 O   0  0  0  0  0  0  0  0  0  0  0  0
   -2.4610    0.9744  -11.8101 O   0  0  0  0  0  0  0  0  0  0  0  0
   -4.0612    2.2751  -10.4544 N   0  0  0  0  0  0  0  0  0  0  0  0
   -4.5389    3.5793   -9.9884 C   0  0  1  0  0  0  0  0  0  0  0  0
   -4.9764    1.1319  -10.4958 C   0  0  1  0  0  0  0  0  0  0  0  0
   -0.9868    2.6055   -8.7120 C   0  0  0  0  0  0  0  0  0  0  0  0
   -0.2605    2.2436   -7.5929 C   0  0  0  0  0  0  0  0  0  0  0  0
    1.0039    1.9031    0.0027 H   0  0  0  0  0  0  0  0  0  0  0  0
   -0.5459    1.8868   -0.8726 H   0  0  0  0  0  0  0  0  0  0  0  0
   -0.5289    1.8773    0.9072 H   0  0  0  0  0  0  0  0  0  0  0  0
    0.5293   -0.3651    0.8851 H   0  0  0  0  0  0  0  0  0  0  0  0
   -1.0205   -0.3814    0.0098 H   0  0  0  0  0  0  0  0  0  0  0  0
   -0.1428   -2.4694   -1.1520 H   0  0  0  0  0  0  0  0  0  0  0  0
    1.3594   -2.3725   -2.1017 H   0  0  0  0  0  0  0  0  0  0  0  0
    1.4245   -2.3064   -0.3242 H   0  0  0  0  0  0  0  0  0  0  0  0
   -1.0102    0.0381   -2.3676 H   0  0  0  0  0  0  0  0  0  0  0  0
   -1.0041   -0.3256   -5.0379 H   0  0  0  0  0  0  0  0  0  0  0  0
   -0.7034    1.3915   -4.6778 H   0  0  0  0  0  0  0  0  0  0  0  0
    1.4672    1.2612   -5.8696 H   0  0  0  0  0  0  0  0  0  0  0  0
    1.1665   -0.4558   -6.2296 H   0  0  0  0  0  0  0  0  0  0  0  0
   -0.5461   -1.1094   -7.8246 H   0  0  0  0  0  0  0  0  0  0  0  0
   -1.8453   -0.4646   -9.8145 H   0  0  0  0  0  0  0  0  0  0  0  0
   -4.9221    4.1494  -10.8346 H   0  0  0  0  0  0  0  0  0  0  0  0
   -5.3345    3.4348   -9.2575 H   0  0  0  0  0  0  0  0  0  0  0  0
   -3.7155    4.1239   -9.5263 H   0  0  0  0  0  0  0  0  0  0  0  0
   -4.4458    0.2549  -10.8667 H   0  0  0  0  0  0  0  0  0  0  0  0
   -5.3529    0.9314   -9.4927 H   0  0  0  0  0  0  0  0  0  0  0  0
   -5.8114    1.3587  -11.1587 H   0  0  0  0  0  0  0  0  0  0  0  0
   -1.1107    3.6490   -8.9612 H   0  0  0  0  0  0  0  0  0  0  0  0
    0.1853    3.0043   -6.9692 H   0  0  0  0  0  0  0  0  0  0  0  0
  1  2  1  0
  1 23  1  6
  1 24  1  0
  1 25  1  0
  2  3  1  0
  2 26  1  1
  2 27  1  0
  3  4  1  6
  3  5  1  0
  3  6  1  0
  5 28  1  1
  5 29  1  0
  5 30  1  0
  6  7  1  0
  6 31  1  0
  7  8  2  0
  7  9  1  0
  9 10  1  0
  9 32  1  6
  9 33  1  0
 10 11  1  0
 10 34  1  1
 10 35  1  0
 11 22  2  0
 11 12  1  0
 12 13  2  0
 12 36  1  0
 13 14  1  0
 13 37  1  0
 14 15  1  0
 14 21  2  0
 15 16  2  0
 15 17  2  0
 15 18  1  1
 18 19  1  0
 18 20  1  0
 19 38  1  6
 19 39  1  0
 19 40  1  0
 20 41  1  6
 20 42  1  0
 20 43  1  0
 21 22  1  0
 21 44  1  0
 22 45  1  0
M  END
$$$$
