ZINC000058441528
     RDKit          3D

 47 49  0  0  1  0  0  0  0  0999 V2000
   -0.1591    0.6370    1.0699 O   0  0  0  0  0  0  0  0  0  0  0  0
    0.1284    1.3751    0.1515 C   0  0  0  0  0  0  0  0  0  0  0  0
    1.4823    2.0357    0.1112 C   0  0  1  0  0  0  0  0  0  0  0  0
    1.5774    2.6182   -0.8052 H   0  0  0  0  0  0  0  0  0  0  0  0
    1.6403    2.9575    1.3244 C   0  0  1  0  0  0  0  0  0  0  0  0
    3.0646    3.5167    1.3532 C   0  0  1  0  0  0  0  0  0  0  0  0
    4.0638    2.3654    1.4879 C   0  0  1  0  0  0  0  0  0  0  0  0
    3.9333    1.4369    0.2765 C   0  0  1  0  0  0  0  0  0  0  0  0
    2.5327    1.0092    0.1536 N   0  0  0  0  0  0  0  0  0  0  0  0
    2.1456   -0.5988    0.0708 S   0  0  1  0  0  0  0  0  0  0  0  0
    0.9557   -0.6859   -0.7010 O   0  0  0  0  0  0  0  0  0  0  0  0
    3.3439   -1.2830   -0.2685 O   0  0  0  0  0  0  0  0  0  0  0  0
    1.7208   -1.1175    1.7003 C   0  0  0  0  0  0  0  0  0  0  0  0
    0.4329   -1.5334    1.9795 C   0  0  0  0  0  0  0  0  0  0  0  0
    0.0994   -1.9404    3.2580 C   0  0  0  0  0  0  0  0  0  0  0  0
   -1.3053   -2.3938    3.5618 C   0  0  1  0  0  0  0  0  0  0  0  0
   -1.4067   -3.7727    3.3484 F   0  0  0  0  0  0  0  0  0  0  0  0
   -1.6103   -2.1047    4.8962 F   0  0  0  0  0  0  0  0  0  0  0  0
   -2.2030   -1.7248    2.7228 F   0  0  0  0  0  0  0  0  0  0  0  0
    1.0540   -1.9321    4.2576 C   0  0  0  0  0  0  0  0  0  0  0  0
    2.3427   -1.5164    3.9795 C   0  0  0  0  0  0  0  0  0  0  0  0
    2.6783   -1.1140    2.6993 C   0  0  0  0  0  0  0  0  0  0  0  0
    4.2965   -0.5918    2.3493 Cl  0  0  0  0  0  0  0  0  0  0  0  0
   -0.7609    1.6001   -0.8359 N   0  0  0  0  0  0  0  0  0  0  0  0
   -0.5068    2.3787   -2.0569 C   0  0  1  0  0  0  0  0  0  0  0  0
   -1.8148    2.3863   -2.8759 C   0  0  1  0  0  0  0  0  0  0  0  0
   -2.8973    2.0895   -1.8047 C   0  0  1  0  0  0  0  0  0  0  0  0
   -2.1476    1.1009   -0.8735 C   0  0  1  0  0  0  0  0  0  0  0  0
    0.9281    3.7795    1.2520 H   0  0  0  0  0  0  0  0  0  0  0  0
    1.4528    2.3925    2.2375 H   0  0  0  0  0  0  0  0  0  0  0  0
    3.2598    4.0607    0.4290 H   0  0  0  0  0  0  0  0  0  0  0  0
    3.1724    4.1923    2.2017 H   0  0  0  0  0  0  0  0  0  0  0  0
    5.0766    2.7660    1.5319 H   0  0  0  0  0  0  0  0  0  0  0  0
    3.8535    1.8059    2.3995 H   0  0  0  0  0  0  0  0  0  0  0  0
    4.2308    1.9702   -0.6264 H   0  0  0  0  0  0  0  0  0  0  0  0
    4.5712    0.5639    0.4148 H   0  0  0  0  0  0  0  0  0  0  0  0
   -0.3135   -1.5401    1.1988 H   0  0  0  0  0  0  0  0  0  0  0  0
    0.7929   -2.2502    5.2561 H   0  0  0  0  0  0  0  0  0  0  0  0
    3.0885   -1.5100    4.7606 H   0  0  0  0  0  0  0  0  0  0  0  0
   -0.2279    3.3992   -1.7944 H   0  0  0  0  0  0  0  0  0  0  0  0
    0.2901    1.9115   -2.6354 H   0  0  0  0  0  0  0  0  0  0  0  0
   -1.9795    3.3632   -3.3304 H   0  0  0  0  0  0  0  0  0  0  0  0
   -1.7989    1.6043   -3.6351 H   0  0  0  0  0  0  0  0  0  0  0  0
   -3.1782    2.9975   -1.2711 H   0  0  0  0  0  0  0  0  0  0  0  0
   -3.7706    1.6155   -2.2528 H   0  0  0  0  0  0  0  0  0  0  0  0
   -2.1822    0.0921   -1.2847 H   0  0  0  0  0  0  0  0  0  0  0  0
   -2.5809    1.1190    0.1265 H   0  0  0  0  0  0  0  0  0  0  0  0
  1  2  2  0
  2  3  1  0
  2 24  1  0
  3  4  1  6
  3  9  1  0
  3  5  1  0
  5  6  1  0
  5 29  1  6
  5 30  1  0
  6  7  1  0
  6 31  1  6
  6 32  1  0
  7  8  1  0
  7 33  1  1
  7 34  1  0
  8  9  1  0
  8 35  1  6
  8 36  1  0
 10  9  1  1
 10 11  2  0
 10 12  2  0
 10 13  1  0
 13 22  2  0
 13 14  1  0
 14 15  2  0
 14 37  1  0
 15 16  1  0
 15 20  1  0
 16 17  1  1
 16 18  1  0
 16 19  1  0
 20 21  2  0
 20 38  1  0
 21 22  1  0
 21 39  1  0
 22 23  1  0
 24 28  1  0
 24 25  1  0
 25 26  1  0
 25 40  1  1
 25 41  1  0
 26 27  1  0
 26 42  1  6
 26 43  1  0
 27 28  1  0
 27 44  1  1
 27 45  1  0
 28 46  1  6
 28 47  1  0
M  END
$$$$
