ZINC000006678212
     RDKit          3D

 56 57  0  0  1  0  0  0  0  0999 V2000
   -0.0187    1.5258    0.0104 C   0  0  1  0  0  0  0  0  0  0  0  0
    0.0021   -0.0041    0.0020 C   0  0  1  0  0  0  0  0  0  0  0  0
    0.7182   -0.4975   -1.2568 C   0  0  1  0  0  0  0  0  0  0  0  0
    1.7103   -0.0491   -1.3098 H   0  0  0  0  0  0  0  0  0  0  0  0
    0.8493   -2.0210   -1.2049 C   0  0  1  0  0  0  0  0  0  0  0  0
   -0.0549   -0.1139   -2.4405 N   0  0  0  0  0  0  0  0  0  0  0  0
    0.5610    0.0279   -3.6309 C   0  0  0  0  0  0  0  0  0  0  0  0
    1.7554   -0.1622   -3.7221 O   0  0  0  0  0  0  0  0  0  0  0  0
   -0.2343    0.4225   -4.8486 C   0  0  1  0  0  0  0  0  0  0  0  0
    0.6578    0.5093   -6.0075 N   0  0  0  0  0  0  0  0  0  0  0  0
    0.9760   -0.6949   -6.7787 C   0  0  1  0  0  0  0  0  0  0  0  0
   -0.1001   -0.9320   -7.8067 C   0  0  0  0  0  0  0  0  0  0  0  0
   -1.2033   -1.7015   -7.4878 C   0  0  0  0  0  0  0  0  0  0  0  0
   -2.1904   -1.9190   -8.4308 C   0  0  0  0  0  0  0  0  0  0  0  0
   -2.0745   -1.3665   -9.6926 C   0  0  0  0  0  0  0  0  0  0  0  0
   -0.9718   -0.5962  -10.0113 C   0  0  0  0  0  0  0  0  0  0  0  0
    0.0132   -0.3752   -9.0669 C   0  0  0  0  0  0  0  0  0  0  0  0
    1.3064    1.9686   -6.4456 S   0  0  1  0  0  0  0  0  0  0  0  0
    1.6313    1.8654   -7.8251 O   0  0  0  0  0  0  0  0  0  0  0  0
    0.4392    2.9661   -5.9239 O   0  0  0  0  0  0  0  0  0  0  0  0
    2.8350    2.1392   -5.5859 C   0  0  0  0  0  0  0  0  0  0  0  0
    2.8614    2.7283   -4.3356 C   0  0  0  0  0  0  0  0  0  0  0  0
    4.0587    2.8628   -3.6592 C   0  0  0  0  0  0  0  0  0  0  0  0
    5.2347    2.4061   -4.2357 C   0  0  0  0  0  0  0  0  0  0  0  0
    6.4135    2.5369   -3.5722 O   0  0  0  0  0  0  0  0  0  0  0  0
    6.3681    3.1545   -2.2844 C   0  0  1  0  0  0  0  0  0  0  0  0
    5.2055    1.8152   -5.4907 C   0  0  0  0  0  0  0  0  0  0  0  0
    6.4813    1.3174   -6.1198 C   0  0  1  0  0  0  0  0  0  0  0  0
    4.0053    1.6783   -6.1605 C   0  0  0  0  0  0  0  0  0  0  0  0
    1.0039    1.9031    0.0027 H   0  0  0  0  0  0  0  0  0  0  0  0
   -0.5459    1.8868   -0.8726 H   0  0  0  0  0  0  0  0  0  0  0  0
   -0.5289    1.8773    0.9072 H   0  0  0  0  0  0  0  0  0  0  0  0
    0.5293   -0.3651    0.8851 H   0  0  0  0  0  0  0  0  0  0  0  0
   -1.0205   -0.3814    0.0098 H   0  0  0  0  0  0  0  0  0  0  0  0
    1.3594   -2.3725   -2.1017 H   0  0  0  0  0  0  0  0  0  0  0  0
    1.4245   -2.3064   -0.3242 H   0  0  0  0  0  0  0  0  0  0  0  0
   -0.1428   -2.4694   -1.1520 H   0  0  0  0  0  0  0  0  0  0  0  0
   -1.0102    0.0381   -2.3676 H   0  0  0  0  0  0  0  0  0  0  0  0
   -1.0041   -0.3256   -5.0379 H   0  0  0  0  0  0  0  0  0  0  0  0
   -0.7034    1.3915   -4.6778 H   0  0  0  0  0  0  0  0  0  0  0  0
    1.9347   -0.5625   -7.2801 H   0  0  0  0  0  0  0  0  0  0  0  0
    1.0324   -1.5519   -6.1075 H   0  0  0  0  0  0  0  0  0  0  0  0
   -1.2938   -2.1331   -6.5019 H   0  0  0  0  0  0  0  0  0  0  0  0
   -3.0519   -2.5208   -8.1818 H   0  0  0  0  0  0  0  0  0  0  0  0
   -2.8454   -1.5370  -10.4296 H   0  0  0  0  0  0  0  0  0  0  0  0
   -0.8811   -0.1649  -10.9973 H   0  0  0  0  0  0  0  0  0  0  0  0
    0.8747    0.2266   -9.3159 H   0  0  0  0  0  0  0  0  0  0  0  0
    1.9455    3.0841   -3.8873 H   0  0  0  0  0  0  0  0  0  0  0  0
    4.0789    3.3235   -2.6825 H   0  0  0  0  0  0  0  0  0  0  0  0
    7.3737    3.1962   -1.8658 H   0  0  0  0  0  0  0  0  0  0  0  0
    5.9722    4.1655   -2.3801 H   0  0  0  0  0  0  0  0  0  0  0  0
    5.7239    2.5729   -1.6250 H   0  0  0  0  0  0  0  0  0  0  0  0
    6.6453    0.2781   -5.8352 H   0  0  0  0  0  0  0  0  0  0  0  0
    6.4035    1.3891   -7.2047 H   0  0  0  0  0  0  0  0  0  0  0  0
    7.3178    1.9250   -5.7745 H   0  0  0  0  0  0  0  0  0  0  0  0
    3.9820    1.2180   -7.1373 H   0  0  0  0  0  0  0  0  0  0  0  0
  1  2  1  0
  1 30  1  6
  1 31  1  0
  1 32  1  0
  2  3  1  0
  2 33  1  1
  2 34  1  0
  3  4  1  6
  3  5  1  0
  3  6  1  0
  5 35  1  6
  5 36  1  0
  5 37  1  0
  6  7  1  0
  6 38  1  0
  7  8  2  0
  7  9  1  0
  9 10  1  0
  9 39  1  6
  9 40  1  0
 10 11  1  0
 18 10  1  1
 11 12  1  0
 11 41  1  6
 11 42  1  0
 12 17  2  0
 12 13  1  0
 13 14  2  0
 13 43  1  0
 14 15  1  0
 14 44  1  0
 15 16  2  0
 15 45  1  0
 16 17  1  0
 16 46  1  0
 17 47  1  0
 18 19  2  0
 18 20  2  0
 18 21  1  0
 21 29  2  0
 21 22  1  0
 22 23  2  0
 22 48  1  0
 23 24  1  0
 23 49  1  0
 24 25  1  0
 24 27  2  0
 25 26  1  0
 26 50  1  1
 26 51  1  0
 26 52  1  0
 27 28  1  0
 27 29  1  0
 28 53  1  6
 28 54  1  0
 28 55  1  0
 29 56  1  0
M  END
$$$$
