ZINC000004452614
     RDKit          3D

 41 43  0  0  1  0  0  0  0  0999 V2000
    0.0021   -0.0041    0.0020 O   0  0  0  0  0  0  0  0  0  0  0  0
   -0.0144    1.2086    0.0087 C   0  0  0  0  0  0  0  0  0  0  0  0
    1.1435    1.8983    0.0013 N   0  0  0  0  0  0  0  0  0  0  0  0
    2.4220    1.1832   -0.0147 C   0  0  1  0  0  0  0  0  0  0  0  0
    2.5588    0.3570   -1.2952 C   0  0  1  0  0  0  0  0  0  0  0  0
    2.4831    1.2034   -2.4066 F   0  0  0  0  0  0  0  0  0  0  0  0
    3.7923   -0.3030   -1.2948 F   0  0  0  0  0  0  0  0  0  0  0  0
    1.5260   -0.5848   -1.3551 F   0  0  0  0  0  0  0  0  0  0  0  0
    3.5453    2.1266    0.1196 N   0  0  0  0  0  0  0  0  0  0  0  0
    4.1909    1.7974    1.2531 C   0  0  0  0  0  0  0  0  0  0  0  0
    5.1744    2.3812    1.6644 O   0  0  0  0  0  0  0  0  0  0  0  0
    3.6292    0.7556    1.8769 N   0  0  0  0  0  0  0  0  0  0  0  0
    4.1229    0.1844    3.1324 C   0  0  1  0  0  0  0  0  0  0  0  0
    3.4487    0.8872    4.3124 C   0  0  1  0  0  0  0  0  0  0  0  0
    3.9565    0.2997    5.6039 C   0  0  0  0  0  0  0  0  0  0  0  0
    3.3111   -0.7829    6.1717 C   0  0  0  0  0  0  0  0  0  0  0  0
    3.7769   -1.3219    7.3563 C   0  0  0  0  0  0  0  0  0  0  0  0
    4.8885   -0.7786    7.9729 C   0  0  0  0  0  0  0  0  0  0  0  0
    5.5344    0.3034    7.4047 C   0  0  0  0  0  0  0  0  0  0  0  0
    5.0711    0.8397    6.2178 C   0  0  0  0  0  0  0  0  0  0  0  0
    2.5528    0.2971    1.2082 C   0  0  0  0  0  0  0  0  0  0  0  0
    1.8374   -0.6306    1.5202 O   0  0  0  0  0  0  0  0  0  0  0  0
   -1.3296    1.9443    0.0189 C   0  0  1  0  0  0  0  0  0  0  0  0
   -2.1936    1.8643   -1.2412 C   0  0  1  0  0  0  0  0  0  0  0  0
   -2.6086    1.1047    0.0204 C   0  0  1  0  0  0  0  0  0  0  0  0
    1.1304    2.8682    0.0067 H   0  0  0  0  0  0  0  0  0  0  0  0
    3.7751    2.8449   -0.4905 H   0  0  0  0  0  0  0  0  0  0  0  0
    3.8913   -0.8802    3.1631 H   0  0  0  0  0  0  0  0  0  0  0  0
    5.2022    0.3234    3.1952 H   0  0  0  0  0  0  0  0  0  0  0  0
    3.6803    1.9519    4.2817 H   0  0  0  0  0  0  0  0  0  0  0  0
    2.3694    0.7483    4.2496 H   0  0  0  0  0  0  0  0  0  0  0  0
    2.4427   -1.2074    5.6899 H   0  0  0  0  0  0  0  0  0  0  0  0
    3.2723   -2.1672    7.8003 H   0  0  0  0  0  0  0  0  0  0  0  0
    5.2520   -1.1992    8.8989 H   0  0  0  0  0  0  0  0  0  0  0  0
    6.4026    0.7281    7.8866 H   0  0  0  0  0  0  0  0  0  0  0  0
    5.5758    1.6850    5.7738 H   0  0  0  0  0  0  0  0  0  0  0  0
   -1.3407    2.8795    0.5787 H   0  0  0  0  0  0  0  0  0  0  0  0
   -2.7733    2.7471   -1.5108 H   0  0  0  0  0  0  0  0  0  0  0  0
   -1.8108    1.2795   -2.0776 H   0  0  0  0  0  0  0  0  0  0  0  0
   -2.4989    0.0203    0.0140 H   0  0  0  0  0  0  0  0  0  0  0  0
   -3.4614    1.4878    0.5808 H   0  0  0  0  0  0  0  0  0  0  0  0
  1  2  2  0
  2  3  1  0
  2 23  1  0
  3 26  1  0
  4  3  1  6
  4 21  1  0
  4  5  1  0
  4  9  1  0
  5  6  1  6
  5  7  1  0
  5  8  1  0
  9 10  1  0
  9 27  1  0
 10 11  2  0
 10 12  1  0
 12 13  1  0
 12 21  1  0
 13 14  1  0
 13 28  1  6
 13 29  1  0
 14 15  1  0
 14 30  1  1
 14 31  1  0
 15 20  2  0
 15 16  1  0
 16 17  2  0
 16 32  1  0
 17 18  1  0
 17 33  1  0
 18 19  2  0
 18 34  1  0
 19 20  1  0
 19 35  1  0
 20 36  1  0
 21 22  2  0
 23 25  1  0
 23 24  1  0
 23 37  1  1
 24 25  1  0
 24 38  1  6
 24 39  1  0
 25 40  1  6
 25 41  1  0
M  END
$$$$
