ZINC000004653831
     RDKit          3D

 37 38  0  0  1  0  0  0  0  0999 V2000
    1.6112    1.5750    0.7916 C   0  0  1  0  0  0  0  0  0  0  0  0
    1.4850    0.0510    0.7441 C   0  0  1  0  0  0  0  0  0  0  0  0
    1.7884   -0.4420   -0.6722 C   0  0  1  0  0  0  0  0  0  0  0  0
    1.6622   -1.9660   -0.7197 C   0  0  1  0  0  0  0  0  0  0  0  0
    1.9527   -2.4380   -2.0758 N   0  0  0  0  0  0  0  0  0  0  0  0
    1.0319   -2.5778   -3.0363 C   0  0  0  0  0  0  0  0  0  0  0  0
   -0.1475   -2.3273   -2.8832 O   0  0  0  0  0  0  0  0  0  0  0  0
    1.5573   -3.0267   -4.1905 N   0  0  0  0  0  0  0  0  0  0  0  0
    3.0010   -3.2023   -3.9561 C   0  0  1  0  0  0  0  0  0  0  0  0
    3.3861   -4.6039   -4.1390 N   0  0  0  0  0  0  0  0  0  0  0  0
    4.6242   -5.0127   -3.7975 C   0  0  0  0  0  0  0  0  0  0  0  0
    5.3915   -4.2408   -3.2624 O   0  0  0  0  0  0  0  0  0  0  0  0
    5.0551   -6.4287   -4.0808 C   0  0  1  0  0  0  0  0  0  0  0  0
    6.1307   -6.6397   -5.1482 C   0  0  1  0  0  0  0  0  0  0  0  0
    6.4726   -6.8315   -3.6693 C   0  0  1  0  0  0  0  0  0  0  0  0
    3.8114   -2.2974   -4.8863 C   0  0  1  0  0  0  0  0  0  0  0  0
    3.3788   -0.9746   -4.7433 F   0  0  0  0  0  0  0  0  0  0  0  0
    5.1678   -2.3828   -4.5547 F   0  0  0  0  0  0  0  0  0  0  0  0
    3.6285   -2.7071   -6.2113 F   0  0  0  0  0  0  0  0  0  0  0  0
    3.1814   -2.7794   -2.5117 C   0  0  0  0  0  0  0  0  0  0  0  0
    4.2150   -2.7583   -1.8785 O   0  0  0  0  0  0  0  0  0  0  0  0
    2.6252    1.8645    0.5156 H   0  0  0  0  0  0  0  0  0  0  0  0
    0.9032    2.0202    0.0926 H   0  0  0  0  0  0  0  0  0  0  0  0
    1.3951    1.9262    1.8006 H   0  0  0  0  0  0  0  0  0  0  0  0
    2.1930   -0.3942    1.4432 H   0  0  0  0  0  0  0  0  0  0  0  0
    0.4711   -0.2384    1.0202 H   0  0  0  0  0  0  0  0  0  0  0  0
    1.0804    0.0032   -1.3713 H   0  0  0  0  0  0  0  0  0  0  0  0
    2.8024   -0.1525   -0.9482 H   0  0  0  0  0  0  0  0  0  0  0  0
    2.3702   -2.4112   -0.0206 H   0  0  0  0  0  0  0  0  0  0  0  0
    0.6483   -2.2554   -0.4437 H   0  0  0  0  0  0  0  0  0  0  0  0
    1.0787   -3.2012   -5.0160 H   0  0  0  0  0  0  0  0  0  0  0  0
    2.7500   -5.2378   -4.5058 H   0  0  0  0  0  0  0  0  0  0  0  0
    4.2732   -7.1836   -3.9975 H   0  0  0  0  0  0  0  0  0  0  0  0
    6.0565   -7.5336   -5.7676 H   0  0  0  0  0  0  0  0  0  0  0  0
    6.5266   -5.7544   -5.6456 H   0  0  0  0  0  0  0  0  0  0  0  0
    7.0935   -6.0723   -3.1937 H   0  0  0  0  0  0  0  0  0  0  0  0
    6.6233   -7.8515   -3.3157 H   0  0  0  0  0  0  0  0  0  0  0  0
  1  2  1  0
  1 22  1  6
  1 23  1  0
  1 24  1  0
  2  3  1  0
  2 25  1  1
  2 26  1  0
  3  4  1  0
  3 27  1  6
  3 28  1  0
  4  5  1  0
  4 29  1  1
  4 30  1  0
  5 20  1  0
  5  6  1  0
  6  7  2  0
  6  8  1  0
  8  9  1  0
  8 31  1  0
  9 10  1  1
  9 16  1  0
  9 20  1  0
 10 11  1  0
 10 32  1  0
 11 12  2  0
 11 13  1  0
 13 15  1  0
 13 14  1  0
 13 33  1  6
 14 15  1  0
 14 34  1  6
 14 35  1  0
 15 36  1  1
 15 37  1  0
 16 17  1  6
 16 18  1  0
 16 19  1  0
 20 21  2  0
M  END
$$$$
