ZINC000408617375
     RDKit          3D

 50 51  0  0  1  0  0  0  0  0999 V2000
   -0.0173    1.4248    0.0099 C   0  0  1  0  0  0  0  0  0  0  0  0
    0.0021   -0.0041    0.0020 O   0  0  0  0  0  0  0  0  0  0  0  0
    0.6734   -0.5824    1.1231 C   0  0  1  0  0  0  0  0  0  0  0  0
    0.6327   -2.1077    1.0107 C   0  0  2  0  0  0  0  0  0  0  0  0
    1.2199   -2.5473    1.8170 H   0  0  0  0  0  0  0  0  0  0  0  0
    1.2166   -2.5355   -0.3372 C   0  0  1  0  0  0  0  0  0  0  0  0
   -0.7546   -2.5679    1.1100 N   0  0  0  0  0  0  0  0  0  0  0  0
   -1.0210   -3.8180    1.5375 C   0  0  0  0  0  0  0  0  0  0  0  0
   -0.1122   -4.5620    1.8399 O   0  0  0  0  0  0  0  0  0  0  0  0
   -2.4481   -4.2913    1.6397 C   0  0  1  0  0  0  0  0  0  0  0  0
   -2.4706   -5.6735    2.1246 N   0  0  0  0  0  0  0  0  0  0  0  0
   -2.4250   -5.9460    3.5633 C   0  0  1  0  0  0  0  0  0  0  0  0
   -3.8187   -5.8762    4.1322 C   0  0  0  0  0  0  0  0  0  0  0  0
   -4.3129   -4.6746    4.6044 C   0  0  0  0  0  0  0  0  0  0  0  0
   -5.5911   -4.6101    5.1263 C   0  0  0  0  0  0  0  0  0  0  0  0
   -6.3760   -5.7483    5.1761 C   0  0  0  0  0  0  0  0  0  0  0  0
   -7.9818   -5.6679    5.8309 Cl  0  0  0  0  0  0  0  0  0  0  0  0
   -5.8809   -6.9506    4.7033 C   0  0  0  0  0  0  0  0  0  0  0  0
   -4.6046   -7.0127    4.1765 C   0  0  0  0  0  0  0  0  0  0  0  0
   -2.5476   -6.9281    1.0463 S   0  0  1  0  0  0  0  0  0  0  0  0
   -3.2364   -7.9819    1.7054 O   0  0  0  0  0  0  0  0  0  0  0  0
   -2.9781   -6.3706   -0.1878 O   0  0  0  0  0  0  0  0  0  0  0  0
   -0.8997   -7.4957    0.7880 C   0  0  0  0  0  0  0  0  0  0  0  0
   -0.1276   -6.9427   -0.2164 C   0  0  0  0  0  0  0  0  0  0  0  0
    1.1652   -7.3880   -0.4191 C   0  0  0  0  0  0  0  0  0  0  0  0
    1.6862   -8.3861    0.3830 C   0  0  0  0  0  0  0  0  0  0  0  0
    0.9144   -8.9385    1.3881 C   0  0  0  0  0  0  0  0  0  0  0  0
   -0.3770   -8.4902    1.5935 C   0  0  0  0  0  0  0  0  0  0  0  0
    1.0053    1.8021    0.0021 H   0  0  0  0  0  0  0  0  0  0  0  0
   -0.5445    1.7859   -0.8732 H   0  0  0  0  0  0  0  0  0  0  0  0
   -0.5275    1.7763    0.9067 H   0  0  0  0  0  0  0  0  0  0  0  0
    1.7103   -0.2468    1.1385 H   0  0  0  0  0  0  0  0  0  0  0  0
    0.1775   -0.2725    2.0430 H   0  0  0  0  0  0  0  0  0  0  0  0
    0.6294   -2.0960   -1.1435 H   0  0  0  0  0  0  0  0  0  0  0  0
    2.2488   -2.1932   -0.4112 H   0  0  0  0  0  0  0  0  0  0  0  0
    1.1876   -3.6222   -0.4173 H   0  0  0  0  0  0  0  0  0  0  0  0
   -1.4815   -1.9728    0.8682 H   0  0  0  0  0  0  0  0  0  0  0  0
   -2.9936   -3.6534    2.3351 H   0  0  0  0  0  0  0  0  0  0  0  0
   -2.9181   -4.2431    0.6574 H   0  0  0  0  0  0  0  0  0  0  0  0
   -2.0131   -6.9410    3.7318 H   0  0  0  0  0  0  0  0  0  0  0  0
   -1.7948   -5.2040    4.0537 H   0  0  0  0  0  0  0  0  0  0  0  0
   -3.7000   -3.7863    4.5659 H   0  0  0  0  0  0  0  0  0  0  0  0
   -5.9770   -3.6714    5.4955 H   0  0  0  0  0  0  0  0  0  0  0  0
   -6.4930   -7.8395    4.7422 H   0  0  0  0  0  0  0  0  0  0  0  0
   -4.2181   -7.9511    3.8071 H   0  0  0  0  0  0  0  0  0  0  0  0
   -0.5347   -6.1629   -0.8431 H   0  0  0  0  0  0  0  0  0  0  0  0
    1.7682   -6.9565   -1.2043 H   0  0  0  0  0  0  0  0  0  0  0  0
    2.6960   -8.7345    0.2242 H   0  0  0  0  0  0  0  0  0  0  0  0
    1.3213   -9.7185    2.0145 H   0  0  0  0  0  0  0  0  0  0  0  0
   -0.9799   -8.9217    2.3787 H   0  0  0  0  0  0  0  0  0  0  0  0
  1  2  1  0
  1 29  1  6
  1 30  1  0
  1 31  1  0
  2  3  1  0
  3  4  1  0
  3 32  1  1
  3 33  1  0
  4  5  1  1
  4  6  1  0
  4  7  1  0
  6 34  1  6
  6 35  1  0
  6 36  1  0
  7  8  1  0
  7 37  1  0
  8  9  2  0
  8 10  1  0
 10 11  1  0
 10 38  1  1
 10 39  1  0
 11 12  1  0
 20 11  1  1
 12 13  1  0
 12 40  1  6
 12 41  1  0
 13 19  2  0
 13 14  1  0
 14 15  2  0
 14 42  1  0
 15 16  1  0
 15 43  1  0
 16 17  1  0
 16 18  2  0
 18 19  1  0
 18 44  1  0
 19 45  1  0
 20 21  2  0
 20 22  2  0
 20 23  1  0
 23 28  2  0
 23 24  1  0
 24 25  2  0
 24 46  1  0
 25 26  1  0
 25 47  1  0
 26 27  2  0
 26 48  1  0
 27 28  1  0
 27 49  1  0
 28 50  1  0
M  END
$$$$
