ZINC000408602673
     RDKit          3D

 60 62  0  0  0  0  0  0  0  0999 V2000
   -0.0187    1.5258    0.0104 C   0  0  1  0  0  0  0  0  0  0  0  0
    0.0021   -0.0041    0.0020 C   0  0  1  0  0  0  0  0  0  0  0  0
   -1.3723   -0.5112    0.0124 N   0  0  0  0  0  0  0  0  0  0  0  0
   -2.1099   -0.6542   -1.2453 C   0  0  1  0  0  0  0  0  0  0  0  0
   -1.7727   -2.0031   -1.8836 C   0  0  1  0  0  0  0  0  0  0  0  0
   -2.0922   -0.9227    1.4458 S   0  0  1  0  0  0  0  0  0  0  0  0
   -3.1196   -1.8512    1.1269 O   0  0  0  0  0  0  0  0  0  0  0  0
   -1.0393   -1.2108    2.3555 O   0  0  0  0  0  0  0  0  0  0  0  0
   -2.8978    0.5199    2.0580 C   0  0  0  0  0  0  0  0  0  0  0  0
   -2.2144    1.3948    2.8821 C   0  0  0  0  0  0  0  0  0  0  0  0
   -2.8437    2.5265    3.3633 C   0  0  0  0  0  0  0  0  0  0  0  0
   -4.1624    2.7850    3.0187 C   0  0  0  0  0  0  0  0  0  0  0  0
   -4.7836    3.8979    3.4905 O   0  0  0  0  0  0  0  0  0  0  0  0
   -6.1417    4.0999    3.0945 C   0  0  1  0  0  0  0  0  0  0  0  0
   -6.6600    5.3744    3.7095 C   0  0  0  0  0  0  0  0  0  0  0  0
   -5.9375    6.0437    4.4172 O   0  0  0  0  0  0  0  0  0  0  0  0
   -7.9264    5.7703    3.4731 N   0  0  0  0  0  0  0  0  0  0  0  0
   -8.4302    7.0092    4.0709 C   0  0  1  0  0  0  0  0  0  0  0  0
   -9.5585    7.5498    3.2307 C   0  0  0  0  0  0  0  0  0  0  0  0
  -10.4917    6.6861    2.6885 C   0  0  0  0  0  0  0  0  0  0  0  0
  -11.5266    7.1820    1.9178 C   0  0  0  0  0  0  0  0  0  0  0  0
  -11.6286    8.5416    1.6898 C   0  0  0  0  0  0  0  0  0  0  0  0
  -10.6959    9.4054    2.2328 C   0  0  0  0  0  0  0  0  0  0  0  0
   -9.6634    8.9099    3.0070 C   0  0  0  0  0  0  0  0  0  0  0  0
   -8.9316    6.7272    5.4638 C   0  0  0  0  0  0  0  0  0  0  0  0
   -9.6303    5.5633    5.7244 C   0  0  0  0  0  0  0  0  0  0  0  0
  -10.0902    5.3046    7.0021 C   0  0  0  0  0  0  0  0  0  0  0  0
   -9.8510    6.2096    8.0192 C   0  0  0  0  0  0  0  0  0  0  0  0
   -9.1515    7.3731    7.7588 C   0  0  0  0  0  0  0  0  0  0  0  0
   -8.6879    7.6298    6.4820 C   0  0  0  0  0  0  0  0  0  0  0  0
   -4.8459    1.9058    2.1913 C   0  0  0  0  0  0  0  0  0  0  0  0
   -4.2105    0.7780    1.7088 C   0  0  0  0  0  0  0  0  0  0  0  0
    1.0039    1.9031    0.0027 H   0  0  0  0  0  0  0  0  0  0  0  0
   -0.5459    1.8868   -0.8726 H   0  0  0  0  0  0  0  0  0  0  0  0
   -0.5289    1.8773    0.9072 H   0  0  0  0  0  0  0  0  0  0  0  0
    0.5123   -0.3556   -0.8948 H   0  0  0  0  0  0  0  0  0  0  0  0
    0.5293   -0.3651    0.8851 H   0  0  0  0  0  0  0  0  0  0  0  0
   -3.1804   -0.6037   -1.0465 H   0  0  0  0  0  0  0  0  0  0  0  0
   -1.8283    0.1500   -1.9251 H   0  0  0  0  0  0  0  0  0  0  0  0
   -2.0544   -2.8073   -1.2038 H   0  0  0  0  0  0  0  0  0  0  0  0
   -2.3215   -2.1096   -2.8194 H   0  0  0  0  0  0  0  0  0  0  0  0
   -0.7022   -2.0536   -2.0825 H   0  0  0  0  0  0  0  0  0  0  0  0
   -1.1877    1.1931    3.1500 H   0  0  0  0  0  0  0  0  0  0  0  0
   -2.3096    3.2093    4.0075 H   0  0  0  0  0  0  0  0  0  0  0  0
   -6.1966    4.1721    2.0083 H   0  0  0  0  0  0  0  0  0  0  0  0
   -6.7479    3.2600    3.4339 H   0  0  0  0  0  0  0  0  0  0  0  0
   -8.5043    5.2349    2.9071 H   0  0  0  0  0  0  0  0  0  0  0  0
   -7.6264    7.7440    4.1159 H   0  0  0  0  0  0  0  0  0  0  0  0
  -10.4120    5.6239    2.8666 H   0  0  0  0  0  0  0  0  0  0  0  0
  -12.2553    6.5071    1.4936 H   0  0  0  0  0  0  0  0  0  0  0  0
  -12.4368    8.9289    1.0871 H   0  0  0  0  0  0  0  0  0  0  0  0
  -10.7754   10.4676    2.0544 H   0  0  0  0  0  0  0  0  0  0  0  0
   -8.9347    9.5847    3.4313 H   0  0  0  0  0  0  0  0  0  0  0  0
   -9.8172    4.8562    4.9297 H   0  0  0  0  0  0  0  0  0  0  0  0
  -10.6368    4.3956    7.2055 H   0  0  0  0  0  0  0  0  0  0  0  0
  -10.2110    6.0079    9.0173 H   0  0  0  0  0  0  0  0  0  0  0  0
   -8.9649    8.0804    8.5534 H   0  0  0  0  0  0  0  0  0  0  0  0
   -8.1413    8.5388    6.2786 H   0  0  0  0  0  0  0  0  0  0  0  0
   -5.8726    2.1046    1.9219 H   0  0  0  0  0  0  0  0  0  0  0  0
   -4.7420    0.0934    1.0644 H   0  0  0  0  0  0  0  0  0  0  0  0
  1  2  1  0
  1 33  1  6
  1 34  1  0
  1 35  1  0
  2  3  1  0
  2 36  1  6
  2 37  1  0
  3  4  1  0
  6  3  1  6
  4  5  1  0
  4 38  1  1
  4 39  1  0
  5 40  1  1
  5 41  1  0
  5 42  1  0
  6  7  2  0
  6  8  2  0
  6  9  1  0
  9 32  2  0
  9 10  1  0
 10 11  2  0
 10 43  1  0
 11 12  1  0
 11 44  1  0
 12 13  1  0
 12 31  2  0
 13 14  1  0
 14 15  1  0
 14 45  1  6
 14 46  1  0
 15 16  2  0
 15 17  1  0
 17 18  1  0
 17 47  1  0
 18 19  1  0
 18 25  1  0
 18 48  1  1
 19 24  2  0
 19 20  1  0
 20 21  2  0
 20 49  1  0
 21 22  1  0
 21 50  1  0
 22 23  2  0
 22 51  1  0
 23 24  1  0
 23 52  1  0
 24 53  1  0
 25 30  2  0
 25 26  1  0
 26 27  2  0
 26 54  1  0
 27 28  1  0
 27 55  1  0
 28 29  2  0
 28 56  1  0
 29 30  1  0
 29 57  1  0
 30 58  1  0
 31 32  1  0
 31 59  1  0
 32 60  1  0
M  END
$$$$
