ZINC000013042472
     RDKit          3D

 54 56  0  0  0  0  0  0  0  0999 V2000
   -0.0184    1.5028    0.0103 C   0  0  1  0  0  0  0  0  0  0  0  0
    0.0021   -0.0041    0.0020 C   0  0  0  0  0  0  0  0  0  0  0  0
    0.0058   -0.6882   -1.1995 C   0  0  0  0  0  0  0  0  0  0  0  0
    0.0245   -2.0707   -1.2105 C   0  0  0  0  0  0  0  0  0  0  0  0
    0.0280   -2.8132   -2.5219 C   0  0  1  0  0  0  0  0  0  0  0  0
    0.0405   -2.7719   -0.0204 C   0  0  0  0  0  0  0  0  0  0  0  0
    0.0373   -2.0878    1.1866 C   0  0  0  0  0  0  0  0  0  0  0  0
    0.0535   -2.7753    2.3587 O   0  0  0  0  0  0  0  0  0  0  0  0
    0.0490   -2.0054    3.5625 C   0  0  1  0  0  0  0  0  0  0  0  0
    0.0687   -2.9315    4.7512 C   0  0  0  0  0  0  0  0  0  0  0  0
    0.0850   -4.1326    4.5839 O   0  0  0  0  0  0  0  0  0  0  0  0
    0.0683   -2.4250    6.0002 N   0  0  0  0  0  0  0  0  0  0  0  0
    0.0425   -0.9718    6.2180 C   0  0  1  0  0  0  0  0  0  0  0  0
   -1.1517   -0.6324    7.1185 C   0  0  1  0  0  0  0  0  0  0  0  0
   -1.1269   -1.5234    8.2870 N   0  0  0  0  0  0  0  0  0  0  0  0
   -1.1286   -0.9011    9.8216 S   0  0  1  0  0  0  0  0  0  0  0  0
   -0.5595   -1.8978   10.6594 O   0  0  0  0  0  0  0  0  0  0  0  0
   -0.6099    0.4180    9.7203 O   0  0  0  0  0  0  0  0  0  0  0  0
   -2.8118   -0.7371   10.3162 C   0  0  0  0  0  0  0  0  0  0  0  0
   -3.4979    0.4342   10.0553 C   0  0  0  0  0  0  0  0  0  0  0  0
   -4.8184    0.5629   10.4433 C   0  0  0  0  0  0  0  0  0  0  0  0
   -5.4530   -0.4801   11.0917 C   0  0  0  0  0  0  0  0  0  0  0  0
   -6.8925   -0.3397   11.5151 C   0  0  1  0  0  0  0  0  0  0  0  0
   -7.7273   -0.7822   10.4834 F   0  0  0  0  0  0  0  0  0  0  0  0
   -7.1188   -1.1098   12.6609 F   0  0  0  0  0  0  0  0  0  0  0  0
   -7.1677    1.0033   11.7940 F   0  0  0  0  0  0  0  0  0  0  0  0
   -4.7674   -1.6520   11.3513 C   0  0  0  0  0  0  0  0  0  0  0  0
   -3.4480   -1.7820   10.9600 C   0  0  0  0  0  0  0  0  0  0  0  0
   -1.1012   -2.9766    8.0692 C   0  0  1  0  0  0  0  0  0  0  0  0
    0.0873   -3.3161    7.1687 C   0  0  1  0  0  0  0  0  0  0  0  0
    0.0229   -0.7006    1.1948 C   0  0  0  0  0  0  0  0  0  0  0  0
    1.0042    1.8801    0.0026 H   0  0  0  0  0  0  0  0  0  0  0  0
   -0.5455    1.8639   -0.8728 H   0  0  0  0  0  0  0  0  0  0  0  0
   -0.5286    1.8543    0.9071 H   0  0  0  0  0  0  0  0  0  0  0  0
   -0.0063   -0.1418   -2.1310 H   0  0  0  0  0  0  0  0  0  0  0  0
    1.0564   -2.9783   -2.8432 H   0  0  0  0  0  0  0  0  0  0  0  0
   -0.4722   -3.7736   -2.3970 H   0  0  0  0  0  0  0  0  0  0  0  0
   -0.4977   -2.2248   -3.2739 H   0  0  0  0  0  0  0  0  0  0  0  0
    0.0551   -3.8518   -0.0295 H   0  0  0  0  0  0  0  0  0  0  0  0
    0.9301   -1.3641    3.5870 H   0  0  0  0  0  0  0  0  0  0  0  0
   -0.8497   -1.3895    3.5966 H   0  0  0  0  0  0  0  0  0  0  0  0
    0.9670   -0.6581    6.7027 H   0  0  0  0  0  0  0  0  0  0  0  0
   -0.0637   -0.4604    5.2613 H   0  0  0  0  0  0  0  0  0  0  0  0
   -1.0788    0.4043    7.4474 H   0  0  0  0  0  0  0  0  0  0  0  0
   -2.0798   -0.7792    6.5662 H   0  0  0  0  0  0  0  0  0  0  0  0
   -3.0021    1.2491    9.5487 H   0  0  0  0  0  0  0  0  0  0  0  0
   -5.3542    1.4783   10.2401 H   0  0  0  0  0  0  0  0  0  0  0  0
   -5.2633   -2.4669   11.8576 H   0  0  0  0  0  0  0  0  0  0  0  0
   -2.9123   -2.6976   11.1628 H   0  0  0  0  0  0  0  0  0  0  0  0
   -0.9950   -3.4880    9.0259 H   0  0  0  0  0  0  0  0  0  0  0  0
   -2.0257   -3.2903    7.5845 H   0  0  0  0  0  0  0  0  0  0  0  0
    0.0133   -4.3530    6.8407 H   0  0  0  0  0  0  0  0  0  0  0  0
    1.0168   -3.1694    7.7189 H   0  0  0  0  0  0  0  0  0  0  0  0
    0.0207   -0.1657    2.1331 H   0  0  0  0  0  0  0  0  0  0  0  0
  1  2  1  0
  1 32  1  6
  1 33  1  0
  1 34  1  0
  2 31  2  0
  2  3  1  0
  3  4  2  0
  3 35  1  0
  4  5  1  0
  4  6  1  0
  5 36  1  6
  5 37  1  0
  5 38  1  0
  6  7  2  0
  6 39  1  0
  7  8  1  0
  7 31  1  0
  8  9  1  0
  9 10  1  0
  9 40  1  6
  9 41  1  0
 10 11  2  0
 10 12  1  0
 12 30  1  0
 12 13  1  0
 13 14  1  0
 13 42  1  1
 13 43  1  0
 14 15  1  0
 14 44  1  1
 14 45  1  0
 16 15  1  6
 15 29  1  0
 16 17  2  0
 16 18  2  0
 16 19  1  0
 19 28  2  0
 19 20  1  0
 20 21  2  0
 20 46  1  0
 21 22  1  0
 21 47  1  0
 22 23  1  0
 22 27  2  0
 23 24  1  6
 23 25  1  0
 23 26  1  0
 27 28  1  0
 27 48  1  0
 28 49  1  0
 29 30  1  0
 29 50  1  1
 29 51  1  0
 30 52  1  6
 30 53  1  0
 31 54  1  0
M  END
$$$$
