ZINC000096121979
     RDKit          3D

 41 42  0  0  0  0  0  0  0  0999 V2000
   -0.2266    0.4234    0.0423 C   0  0  1  0  0  0  0  0  0  0  0  0
   -0.2193   -1.0718   -0.2821 C   0  0  1  0  0  0  0  0  0  0  0  0
   -1.6587   -1.5673   -0.4357 C   0  0  1  0  0  0  0  0  0  0  0  0
    0.5431   -1.3068   -1.5876 C   0  0  1  0  0  0  0  0  0  0  0  0
    2.2855   -0.8567   -1.3597 S   0  0  1  0  0  0  0  0  0  0  0  0
    2.3647    0.5426   -1.1253 O   0  0  0  0  0  0  0  0  0  0  0  0
    2.8651   -1.7515   -0.4202 O   0  0  0  0  0  0  0  0  0  0  0  0
    2.9807   -1.2086   -2.9979 C   0  0  1  0  0  0  0  0  0  0  0  0
    2.7851   -0.0674   -4.0124 C   0  0  1  0  0  0  0  0  0  0  0  0
    4.1756   -0.3339   -4.4288 N   0  0  0  0  0  0  0  0  0  0  0  0
    4.8783   -0.1298   -5.5606 C   0  0  0  0  0  0  0  0  0  0  0  0
    4.3200    0.2909   -6.5550 O   0  0  0  0  0  0  0  0  0  0  0  0
    6.3281   -0.4177   -5.5927 C   0  0  0  0  0  0  0  0  0  0  0  0
    6.9991   -0.7684   -4.4202 C   0  0  0  0  0  0  0  0  0  0  0  0
    8.3520   -1.0362   -4.4571 C   0  0  0  0  0  0  0  0  0  0  0  0
    9.0435   -0.9573   -5.6528 C   0  0  0  0  0  0  0  0  0  0  0  0
   10.5213   -1.2507   -5.6855 C   0  0  1  0  0  0  0  0  0  0  0  0
   10.7208   -2.6139   -5.9287 F   0  0  0  0  0  0  0  0  0  0  0  0
   11.1229   -0.5025   -6.7031 F   0  0  0  0  0  0  0  0  0  0  0  0
   11.0921   -0.9081   -4.4551 F   0  0  0  0  0  0  0  0  0  0  0  0
    8.3842   -0.6106   -6.8188 C   0  0  0  0  0  0  0  0  0  0  0  0
    7.0305   -0.3454   -6.7966 C   0  0  0  0  0  0  0  0  0  0  0  0
    4.4877   -0.9138   -3.1080 C   0  0  1  0  0  0  0  0  0  0  0  0
    0.7989    0.7765    0.1517 H   0  0  0  0  0  0  0  0  0  0  0  0
   -0.7140    0.9682   -0.7663 H   0  0  0  0  0  0  0  0  0  0  0  0
   -0.7697    0.5909    0.9723 H   0  0  0  0  0  0  0  0  0  0  0  0
    0.2681   -1.6166    0.5265 H   0  0  0  0  0  0  0  0  0  0  0  0
   -2.1461   -1.0225   -1.2442 H   0  0  0  0  0  0  0  0  0  0  0  0
   -1.6535   -2.6325   -0.6667 H   0  0  0  0  0  0  0  0  0  0  0  0
   -2.2018   -1.3999    0.4944 H   0  0  0  0  0  0  0  0  0  0  0  0
    0.4728   -2.3585   -1.8651 H   0  0  0  0  0  0  0  0  0  0  0  0
    0.1095   -0.6929   -2.3771 H   0  0  0  0  0  0  0  0  0  0  0  0
    2.6966   -2.1897   -3.3783 H   0  0  0  0  0  0  0  0  0  0  0  0
    2.0460   -0.2865   -4.7830 H   0  0  0  0  0  0  0  0  0  0  0  0
    2.6441    0.9105   -3.5519 H   0  0  0  0  0  0  0  0  0  0  0  0
    6.4606   -0.8297   -3.4860 H   0  0  0  0  0  0  0  0  0  0  0  0
    8.8724   -1.3078   -3.5505 H   0  0  0  0  0  0  0  0  0  0  0  0
    8.9298   -0.5511   -7.7490 H   0  0  0  0  0  0  0  0  0  0  0  0
    6.5170   -0.0753   -7.7075 H   0  0  0  0  0  0  0  0  0  0  0  0
    4.8469   -0.1845   -2.3818 H   0  0  0  0  0  0  0  0  0  0  0  0
    5.1080   -1.8087   -3.1566 H   0  0  0  0  0  0  0  0  0  0  0  0
  1  2  1  0
  1 24  1  1
  1 25  1  0
  1 26  1  0
  2  3  1  0
  2  4  1  0
  2 27  1  1
  3 28  1  6
  3 29  1  0
  3 30  1  0
  4  5  1  0
  4 31  1  6
  4 32  1  0
  5  6  2  0
  5  7  2  0
  5  8  1  6
  8 23  1  0
  8  9  1  0
  8 33  1  6
  9 10  1  0
  9 34  1  6
  9 35  1  0
 10 11  1  0
 10 23  1  0
 11 12  2  0
 11 13  1  0
 13 22  2  0
 13 14  1  0
 14 15  2  0
 14 36  1  0
 15 16  1  0
 15 37  1  0
 16 17  1  0
 16 21  2  0
 17 18  1  6
 17 19  1  0
 17 20  1  0
 21 22  1  0
 21 38  1  0
 22 39  1  0
 23 40  1  1
 23 41  1  0
M  END
$$$$
