ZINC000001367534
     RDKit          3D

 48 50  0  0  0  0  0  0  0  0999 V2000
   -0.0184    1.5028    0.0103 C   0  0  1  0  0  0  0  0  0  0  0  0
    0.0021   -0.0041    0.0020 C   0  0  0  0  0  0  0  0  0  0  0  0
    0.0057   -0.6887   -1.1989 C   0  0  0  0  0  0  0  0  0  0  0  0
    0.0245   -2.0709   -1.2065 C   0  0  0  0  0  0  0  0  0  0  0  0
    0.0400   -2.7685   -0.0132 C   0  0  0  0  0  0  0  0  0  0  0  0
    0.0633   -4.5303   -0.0229 S   0  0  1  0  0  0  0  0  0  0  0  0
   -0.4690   -4.9455    1.2275 O   0  0  0  0  0  0  0  0  0  0  0  0
   -0.4824   -4.9319   -1.2719 O   0  0  0  0  0  0  0  0  0  0  0  0
    1.6514   -4.9995   -0.0340 N   0  0  0  0  0  0  0  0  0  0  0  0
    2.3637   -5.1986   -1.3039 C   0  0  1  0  0  0  0  0  0  0  0  0
    3.6251   -4.3262   -1.3004 C   0  0  1  0  0  0  0  0  0  0  0  0
    4.3476   -4.5504   -0.0404 N   0  0  0  0  0  0  0  0  0  0  0  0
    5.9360   -5.0185   -0.0514 S   0  0  1  0  0  0  0  0  0  0  0  0
    6.1720   -5.6667    1.1909 O   0  0  0  0  0  0  0  0  0  0  0  0
    6.1620   -5.6415   -1.3084 O   0  0  0  0  0  0  0  0  0  0  0  0
    6.9122   -3.5516   -0.0405 C   0  0  0  0  0  0  0  0  0  0  0  0
    7.2855   -2.9609   -1.2332 C   0  0  0  0  0  0  0  0  0  0  0  0
    8.0513   -1.8101   -1.2246 C   0  0  0  0  0  0  0  0  0  0  0  0
    8.4434   -1.2497   -0.0233 C   0  0  0  0  0  0  0  0  0  0  0  0
    9.2787    0.0046   -0.0140 C   0  0  1  0  0  0  0  0  0  0  0  0
    8.4393    1.1236    0.0062 F   0  0  0  0  0  0  0  0  0  0  0  0
   10.0946    0.0131    1.1224 F   0  0  0  0  0  0  0  0  0  0  0  0
   10.0775    0.0414   -1.1619 F   0  0  0  0  0  0  0  0  0  0  0  0
    8.0689   -1.8396    1.1694 C   0  0  0  0  0  0  0  0  0  0  0  0
    7.2998   -2.9883    1.1609 C   0  0  0  0  0  0  0  0  0  0  0  0
    3.6353   -4.3513    1.2296 C   0  0  1  0  0  0  0  0  0  0  0  0
    2.3755   -5.2182    1.2261 C   0  0  1  0  0  0  0  0  0  0  0  0
    0.0378   -2.0839    1.1877 C   0  0  0  0  0  0  0  0  0  0  0  0
    0.0229   -0.7016    1.1953 C   0  0  0  0  0  0  0  0  0  0  0  0
    1.0042    1.8801    0.0026 H   0  0  0  0  0  0  0  0  0  0  0  0
   -0.5455    1.8639   -0.8728 H   0  0  0  0  0  0  0  0  0  0  0  0
   -0.5286    1.8543    0.9071 H   0  0  0  0  0  0  0  0  0  0  0  0
   -0.0064   -0.1436   -2.1312 H   0  0  0  0  0  0  0  0  0  0  0  0
    0.0266   -2.6057   -2.1448 H   0  0  0  0  0  0  0  0  0  0  0  0
    2.6443   -6.2469   -1.4055 H   0  0  0  0  0  0  0  0  0  0  0  0
    1.7200   -4.9075   -2.1340 H   0  0  0  0  0  0  0  0  0  0  0  0
    4.2622   -4.6007   -2.1412 H   0  0  0  0  0  0  0  0  0  0  0  0
    3.3438   -3.2760   -1.3789 H   0  0  0  0  0  0  0  0  0  0  0  0
    6.9793   -3.3988   -2.1718 H   0  0  0  0  0  0  0  0  0  0  0  0
    8.3437   -1.3491   -2.1565 H   0  0  0  0  0  0  0  0  0  0  0  0
    8.3748   -1.4016    2.1080 H   0  0  0  0  0  0  0  0  0  0  0  0
    7.0072   -3.4492    2.0927 H   0  0  0  0  0  0  0  0  0  0  0  0
    4.2791   -4.6423    2.0596 H   0  0  0  0  0  0  0  0  0  0  0  0
    3.3548   -3.3029    1.3312 H   0  0  0  0  0  0  0  0  0  0  0  0
    1.7395   -4.9427    2.0673 H   0  0  0  0  0  0  0  0  0  0  0  0
    2.6544   -6.2691    1.3039 H   0  0  0  0  0  0  0  0  0  0  0  0
    0.0503   -2.6289    2.1200 H   0  0  0  0  0  0  0  0  0  0  0  0
    0.0211   -0.1667    2.1335 H   0  0  0  0  0  0  0  0  0  0  0  0
  1  2  1  0
  1 30  1  6
  1 31  1  0
  1 32  1  0
  2 29  2  0
  2  3  1  0
  3  4  2  0
  3 33  1  0
  4  5  1  0
  4 34  1  0
  5  6  1  0
  5 28  2  0
  6  7  2  0
  6  8  2  0
  6  9  1  6
  9 27  1  0
  9 10  1  0
 10 11  1  0
 10 35  1  6
 10 36  1  0
 11 12  1  0
 11 37  1  6
 11 38  1  0
 13 12  1  1
 12 26  1  0
 13 14  2  0
 13 15  2  0
 13 16  1  0
 16 25  2  0
 16 17  1  0
 17 18  2  0
 17 39  1  0
 18 19  1  0
 18 40  1  0
 19 20  1  0
 19 24  2  0
 20 21  1  1
 20 22  1  0
 20 23  1  0
 24 25  1  0
 24 41  1  0
 25 42  1  0
 26 27  1  0
 26 43  1  1
 26 44  1  0
 27 45  1  1
 27 46  1  0
 28 29  1  0
 28 47  1  0
 29 48  1  0
M  END
$$$$
