ZINC000096323290
     RDKit          3D

 50 52  0  0  0  0  0  0  0  0999 V2000
   -0.3588    1.8678    0.9643 C   0  0  1  0  0  0  0  0  0  0  0  0
   -0.5170    0.3876    1.1990 C   0  0  0  0  0  0  0  0  0  0  0  0
   -0.8314   -0.5033    0.2939 N   0  0  0  0  0  0  0  0  0  0  0  0
   -0.8769   -1.7590    0.9132 N   0  0  0  0  0  0  0  0  0  0  0  0
   -1.1920   -3.0316    0.2593 C   0  0  1  0  0  0  0  0  0  0  0  0
   -0.5793   -1.5895    2.2185 C   0  0  0  0  0  0  0  0  0  0  0  0
   -0.5119   -2.6741    3.2626 C   0  0  1  0  0  0  0  0  0  0  0  0
   -0.3470   -0.2718    2.4207 C   0  0  0  0  0  0  0  0  0  0  0  0
    0.0836    0.4815    3.9542 S   0  0  1  0  0  0  0  0  0  0  0  0
   -0.3027    1.8453    3.8538 O   0  0  0  0  0  0  0  0  0  0  0  0
   -0.3892   -0.3871    4.9747 O   0  0  0  0  0  0  0  0  0  0  0  0
    1.7362    0.4701    4.0591 N   0  0  0  0  0  0  0  0  0  0  0  0
    2.4392   -0.6676    4.6682 C   0  0  1  0  0  0  0  0  0  0  0  0
    3.4638   -1.2063    3.6621 C   0  0  1  0  0  0  0  0  0  0  0  0
    4.2537   -0.0790    3.1472 N   0  0  0  0  0  0  0  0  0  0  0  0
    5.5988   -0.0887    3.2317 C   0  0  0  0  0  0  0  0  0  0  0  0
    6.2451    0.8164    2.7411 O   0  0  0  0  0  0  0  0  0  0  0  0
    6.2882   -1.2001    3.9211 C   0  0  0  0  0  0  0  0  0  0  0  0
    5.9974   -2.5226    3.5829 C   0  0  0  0  0  0  0  0  0  0  0  0
    6.6446   -3.5551    4.2298 C   0  0  0  0  0  0  0  0  0  0  0  0
    7.5798   -3.2818    5.2122 C   0  0  0  0  0  0  0  0  0  0  0  0
    8.2826   -4.4146    5.9149 C   0  0  1  0  0  0  0  0  0  0  0  0
    9.4518   -4.7410    5.2196 F   0  0  0  0  0  0  0  0  0  0  0  0
    8.6086   -4.0242    7.2182 F   0  0  0  0  0  0  0  0  0  0  0  0
    7.4396   -5.5303    5.9594 F   0  0  0  0  0  0  0  0  0  0  0  0
    7.8731   -1.9730    5.5519 C   0  0  0  0  0  0  0  0  0  0  0  0
    7.2369   -0.9312    4.9090 C   0  0  0  0  0  0  0  0  0  0  0  0
    3.5507    1.0588    2.5380 C   0  0  1  0  0  0  0  0  0  0  0  0
    2.5264    1.5949    3.5391 C   0  0  1  0  0  0  0  0  0  0  0  0
    0.6745    2.0844    0.6935 H   0  0  0  0  0  0  0  0  0  0  0  0
   -1.0195    2.1801    0.1555 H   0  0  0  0  0  0  0  0  0  0  0  0
   -0.6172    2.4096    1.8741 H   0  0  0  0  0  0  0  0  0  0  0  0
   -0.2737   -3.4862   -0.1124 H   0  0  0  0  0  0  0  0  0  0  0  0
   -1.6645   -3.7018    0.9773 H   0  0  0  0  0  0  0  0  0  0  0  0
   -1.8722   -2.8535   -0.5736 H   0  0  0  0  0  0  0  0  0  0  0  0
    0.5008   -3.0752    3.3049 H   0  0  0  0  0  0  0  0  0  0  0  0
   -0.7795   -2.2598    4.2346 H   0  0  0  0  0  0  0  0  0  0  0  0
   -1.2081   -3.4717    3.0034 H   0  0  0  0  0  0  0  0  0  0  0  0
    2.9521   -0.3393    5.5723 H   0  0  0  0  0  0  0  0  0  0  0  0
    1.7225   -1.4508    4.9152 H   0  0  0  0  0  0  0  0  0  0  0  0
    4.1232   -1.9190    4.1574 H   0  0  0  0  0  0  0  0  0  0  0  0
    2.9448   -1.6959    2.8381 H   0  0  0  0  0  0  0  0  0  0  0  0
    5.2671   -2.7373    2.8168 H   0  0  0  0  0  0  0  0  0  0  0  0
    6.4206   -4.5789    3.9691 H   0  0  0  0  0  0  0  0  0  0  0  0
    8.6043   -1.7664    6.3193 H   0  0  0  0  0  0  0  0  0  0  0  0
    7.4669    0.0900    5.1748 H   0  0  0  0  0  0  0  0  0  0  0  0
    4.2675    1.8419    2.2910 H   0  0  0  0  0  0  0  0  0  0  0  0
    3.0379    0.7304    1.6340 H   0  0  0  0  0  0  0  0  0  0  0  0
    1.8678    2.3074    3.0425 H   0  0  0  0  0  0  0  0  0  0  0  0
    3.0432    2.0845    4.3645 H   0  0  0  0  0  0  0  0  0  0  0  0
  1  2  1  0
  1 30  1  6
  1 31  1  0
  1 32  1  0
  2  8  1  0
  2  3  2  0
  3  4  1  0
  4  5  1  0
  4  6  1  0
  5 33  1  6
  5 34  1  0
  5 35  1  0
  6  7  1  0
  6  8  2  0
  7 36  1  1
  7 37  1  0
  7 38  1  0
  8  9  1  0
  9 10  2  0
  9 11  2  0
  9 12  1  6
 12 29  1  0
 12 13  1  0
 13 14  1  0
 13 39  1  1
 13 40  1  0
 14 15  1  0
 14 41  1  1
 14 42  1  0
 15 16  1  0
 15 28  1  0
 16 17  2  0
 16 18  1  0
 18 27  2  0
 18 19  1  0
 19 20  2  0
 19 43  1  0
 20 21  1  0
 20 44  1  0
 21 22  1  0
 21 26  2  0
 22 23  1  6
 22 24  1  0
 22 25  1  0
 26 27  1  0
 26 45  1  0
 27 46  1  0
 28 29  1  0
 28 47  1  6
 28 48  1  0
 29 49  1  6
 29 50  1  0
M  END
$$$$
