ZINC000028208282
     RDKit          3D

 59 60  0  0  1  0  0  0  0  0999 V2000
   -0.0187    1.5258    0.0104 C   0  0  1  0  0  0  0  0  0  0  0  0
    0.0021   -0.0041    0.0020 C   0  0  1  0  0  0  0  0  0  0  0  0
    0.6878   -0.4765   -1.2033 N   0  0  0  0  0  0  0  0  0  0  0  0
    2.1478   -0.5966   -1.2159 C   0  0  1  0  0  0  0  0  0  0  0  0
    2.5532   -1.9514   -0.6319 C   0  0  1  0  0  0  0  0  0  0  0  0
   -0.1875   -0.8749   -2.5515 S   0  0  1  0  0  0  0  0  0  0  0  0
    0.6166   -1.7761   -3.3001 O   0  0  0  0  0  0  0  0  0  0  0  0
   -1.4970   -1.1925   -2.1004 O   0  0  0  0  0  0  0  0  0  0  0  0
   -0.3375    0.5853   -3.5262 C   0  0  0  0  0  0  0  0  0  0  0  0
   -1.4061    1.4397   -3.3289 C   0  0  0  0  0  0  0  0  0  0  0  0
   -1.5264    2.5859   -4.0915 C   0  0  0  0  0  0  0  0  0  0  0  0
   -0.5738    2.8793   -5.0556 C   0  0  0  0  0  0  0  0  0  0  0  0
   -0.6898    4.0063   -5.8064 O   0  0  0  0  0  0  0  0  0  0  0  0
   -1.8185    4.8441   -5.5491 C   0  0  1  0  0  0  0  0  0  0  0  0
   -1.7795    6.0364   -6.4699 C   0  0  0  0  0  0  0  0  0  0  0  0
   -0.8743    6.1569   -7.2680 O   0  0  0  0  0  0  0  0  0  0  0  0
   -2.7506    6.9688   -6.4066 N   0  0  0  0  0  0  0  0  0  0  0  0
   -2.7127    8.1279   -7.3017 C   0  0  2  0  0  0  0  0  0  0  0  0
   -2.3034    7.8286   -8.2666 H   0  0  0  0  0  0  0  0  0  0  0  0
   -1.8299    9.2169   -6.6889 C   0  0  1  0  0  0  0  0  0  0  0  0
   -4.1305    8.6695   -7.4951 C   0  0  1  0  0  0  0  0  0  0  0  0
   -4.9808    7.6251   -8.2210 C   0  0  1  0  0  0  0  0  0  0  0  0
   -6.3773    8.1586   -8.4115 C   0  0  0  0  0  0  0  0  0  0  0  0
   -7.3391    7.9391   -7.4432 C   0  0  0  0  0  0  0  0  0  0  0  0
   -8.6201    8.4285   -7.6179 C   0  0  0  0  0  0  0  0  0  0  0  0
   -8.9391    9.1378   -8.7607 C   0  0  0  0  0  0  0  0  0  0  0  0
   -7.9771    9.3581   -9.7286 C   0  0  0  0  0  0  0  0  0  0  0  0
   -6.6950    8.8724   -9.5519 C   0  0  0  0  0  0  0  0  0  0  0  0
    0.4989    2.0198   -5.2522 C   0  0  0  0  0  0  0  0  0  0  0  0
    1.6938    2.3831   -6.4580 Cl  0  0  0  0  0  0  0  0  0  0  0  0
    0.6171    0.8775   -4.4832 C   0  0  0  0  0  0  0  0  0  0  0  0
    1.0039    1.9031    0.0027 H   0  0  0  0  0  0  0  0  0  0  0  0
   -0.5459    1.8868   -0.8726 H   0  0  0  0  0  0  0  0  0  0  0  0
   -0.5289    1.8773    0.9072 H   0  0  0  0  0  0  0  0  0  0  0  0
    0.5293   -0.3651    0.8851 H   0  0  0  0  0  0  0  0  0  0  0  0
   -1.0205   -0.3814    0.0098 H   0  0  0  0  0  0  0  0  0  0  0  0
    2.5098   -0.5199   -2.2412 H   0  0  0  0  0  0  0  0  0  0  0  0
    2.5833    0.2026   -0.6162 H   0  0  0  0  0  0  0  0  0  0  0  0
    2.1912   -2.0280    0.3934 H   0  0  0  0  0  0  0  0  0  0  0  0
    2.1177   -2.7506   -1.2316 H   0  0  0  0  0  0  0  0  0  0  0  0
    3.6395   -2.0407   -0.6413 H   0  0  0  0  0  0  0  0  0  0  0  0
   -2.1482    1.2110   -2.5782 H   0  0  0  0  0  0  0  0  0  0  0  0
   -2.3618    3.2526   -3.9368 H   0  0  0  0  0  0  0  0  0  0  0  0
   -2.7357    4.2812   -5.7222 H   0  0  0  0  0  0  0  0  0  0  0  0
   -1.7905    5.1836   -4.5137 H   0  0  0  0  0  0  0  0  0  0  0  0
   -3.4746    6.8724   -5.7683 H   0  0  0  0  0  0  0  0  0  0  0  0
   -2.2392    9.5162   -5.7240 H   0  0  0  0  0  0  0  0  0  0  0  0
   -0.8198    8.8310   -6.5511 H   0  0  0  0  0  0  0  0  0  0  0  0
   -1.8016   10.0793   -7.3549 H   0  0  0  0  0  0  0  0  0  0  0  0
   -4.5726    8.8858   -6.5225 H   0  0  0  0  0  0  0  0  0  0  0  0
   -4.0926    9.5832   -8.0882 H   0  0  0  0  0  0  0  0  0  0  0  0
   -4.5387    7.4089   -9.1936 H   0  0  0  0  0  0  0  0  0  0  0  0
   -5.0187    6.7114   -7.6279 H   0  0  0  0  0  0  0  0  0  0  0  0
   -7.0899    7.3849   -6.5504 H   0  0  0  0  0  0  0  0  0  0  0  0
   -9.3717    8.2563   -6.8617 H   0  0  0  0  0  0  0  0  0  0  0  0
   -9.9401    9.5195   -8.8975 H   0  0  0  0  0  0  0  0  0  0  0  0
   -8.2264    9.9120  -10.6216 H   0  0  0  0  0  0  0  0  0  0  0  0
   -5.9433    9.0446  -10.3081 H   0  0  0  0  0  0  0  0  0  0  0  0
    1.4512    0.2085   -4.6351 H   0  0  0  0  0  0  0  0  0  0  0  0
  1  2  1  0
  1 32  1  6
  1 33  1  0
  1 34  1  0
  2  3  1  0
  2 35  1  1
  2 36  1  0
  3  4  1  0
  6  3  1  1
  4  5  1  0
  4 37  1  6
  4 38  1  0
  5 39  1  1
  5 40  1  0
  5 41  1  0
  6  7  2  0
  6  8  2  0
  6  9  1  0
  9 31  2  0
  9 10  1  0
 10 11  2  0
 10 42  1  0
 11 12  1  0
 11 43  1  0
 12 13  1  0
 12 29  2  0
 13 14  1  0
 14 15  1  0
 14 44  1  1
 14 45  1  0
 15 16  2  0
 15 17  1  0
 17 18  1  0
 17 46  1  0
 18 19  1  6
 18 20  1  0
 18 21  1  0
 20 47  1  1
 20 48  1  0
 20 49  1  0
 21 22  1  0
 21 50  1  1
 21 51  1  0
 22 23  1  0
 22 52  1  6
 22 53  1  0
 23 28  2  0
 23 24  1  0
 24 25  2  0
 24 54  1  0
 25 26  1  0
 25 55  1  0
 26 27  2  0
 26 56  1  0
 27 28  1  0
 27 57  1  0
 28 58  1  0
 29 30  1  0
 29 31  1  0
 31 59  1  0
M  END
$$$$
