ZINC000039985901
     RDKit          3D

 56 57  0  0  1  0  0  0  0  0999 V2000
   -0.0187    1.5258    0.0104 C   0  0  1  0  0  0  0  0  0  0  0  0
    0.0021   -0.0041    0.0020 C   0  0  1  0  0  0  0  0  0  0  0  0
   -1.3723   -0.5112    0.0124 N   0  0  0  0  0  0  0  0  0  0  0  0
   -2.1099   -0.6542   -1.2453 C   0  0  1  0  0  0  0  0  0  0  0  0
   -1.7778   -1.9829   -1.8740 C   0  0  0  0  0  0  0  0  0  0  0  0
   -1.0015   -2.7362   -1.3256 O   0  0  0  0  0  0  0  0  0  0  0  0
   -2.3435   -2.3340   -3.0459 N   0  0  0  0  0  0  0  0  0  0  0  0
   -2.0207   -3.6257   -3.6571 C   0  0  1  0  0  0  0  0  0  0  0  0
   -0.9778   -3.8717   -3.4573 H   0  0  0  0  0  0  0  0  0  0  0  0
   -2.9230   -4.7100   -3.0646 C   0  0  1  0  0  0  0  0  0  0  0  0
   -2.2452   -3.5451   -5.1684 C   0  0  1  0  0  0  0  0  0  0  0  0
   -1.2560   -2.5500   -5.7785 C   0  0  1  0  0  0  0  0  0  0  0  0
   -1.4771   -2.4706   -7.2671 C   0  0  0  0  0  0  0  0  0  0  0  0
   -0.7937   -3.3232   -8.1138 C   0  0  0  0  0  0  0  0  0  0  0  0
   -0.9965   -3.2504   -9.4793 C   0  0  0  0  0  0  0  0  0  0  0  0
   -1.8830   -2.3252   -9.9980 C   0  0  0  0  0  0  0  0  0  0  0  0
   -2.5671   -1.4732   -9.1512 C   0  0  0  0  0  0  0  0  0  0  0  0
   -2.3675   -1.5490   -7.7854 C   0  0  0  0  0  0  0  0  0  0  0  0
   -2.0922   -0.9227    1.4458 S   0  0  1  0  0  0  0  0  0  0  0  0
   -3.1196   -1.8512    1.1269 O   0  0  0  0  0  0  0  0  0  0  0  0
   -1.0393   -1.2108    2.3555 O   0  0  0  0  0  0  0  0  0  0  0  0
   -2.8978    0.5199    2.0580 C   0  0  0  0  0  0  0  0  0  0  0  0
   -2.2144    1.3948    2.8821 C   0  0  0  0  0  0  0  0  0  0  0  0
   -2.8437    2.5265    3.3633 C   0  0  0  0  0  0  0  0  0  0  0  0
   -4.1624    2.7850    3.0187 C   0  0  0  0  0  0  0  0  0  0  0  0
   -4.7836    3.8979    3.4905 O   0  0  0  0  0  0  0  0  0  0  0  0
   -6.1417    4.0999    3.0945 C   0  0  1  0  0  0  0  0  0  0  0  0
   -4.8459    1.9058    2.1913 C   0  0  0  0  0  0  0  0  0  0  0  0
   -4.2105    0.7780    1.7088 C   0  0  0  0  0  0  0  0  0  0  0  0
    1.0039    1.9031    0.0027 H   0  0  0  0  0  0  0  0  0  0  0  0
   -0.5459    1.8868   -0.8726 H   0  0  0  0  0  0  0  0  0  0  0  0
   -0.5289    1.8773    0.9072 H   0  0  0  0  0  0  0  0  0  0  0  0
    0.5123   -0.3556   -0.8948 H   0  0  0  0  0  0  0  0  0  0  0  0
    0.5293   -0.3651    0.8851 H   0  0  0  0  0  0  0  0  0  0  0  0
   -3.1804   -0.6037   -1.0465 H   0  0  0  0  0  0  0  0  0  0  0  0
   -1.8283    0.1500   -1.9251 H   0  0  0  0  0  0  0  0  0  0  0  0
   -2.9644   -1.7315   -3.4845 H   0  0  0  0  0  0  0  0  0  0  0  0
   -3.9659   -4.4640   -3.2644 H   0  0  0  0  0  0  0  0  0  0  0  0
   -2.6829   -5.6710   -3.5194 H   0  0  0  0  0  0  0  0  0  0  0  0
   -2.7631   -4.7674   -1.9879 H   0  0  0  0  0  0  0  0  0  0  0  0
   -2.0910   -4.5289   -5.6116 H   0  0  0  0  0  0  0  0  0  0  0  0
   -3.2641   -3.2127   -5.3672 H   0  0  0  0  0  0  0  0  0  0  0  0
   -1.4102   -1.5662   -5.3353 H   0  0  0  0  0  0  0  0  0  0  0  0
   -0.2371   -2.8824   -5.5798 H   0  0  0  0  0  0  0  0  0  0  0  0
   -0.1011   -4.0460   -7.7086 H   0  0  0  0  0  0  0  0  0  0  0  0
   -0.4620   -3.9160  -10.1408 H   0  0  0  0  0  0  0  0  0  0  0  0
   -2.0409   -2.2678  -11.0648 H   0  0  0  0  0  0  0  0  0  0  0  0
   -3.2594   -0.7502   -9.5565 H   0  0  0  0  0  0  0  0  0  0  0  0
   -2.9019   -0.8833   -7.1238 H   0  0  0  0  0  0  0  0  0  0  0  0
   -1.1877    1.1931    3.1500 H   0  0  0  0  0  0  0  0  0  0  0  0
   -2.3096    3.2093    4.0075 H   0  0  0  0  0  0  0  0  0  0  0  0
   -6.5166    5.0217    3.5393 H   0  0  0  0  0  0  0  0  0  0  0  0
   -6.1966    4.1721    2.0083 H   0  0  0  0  0  0  0  0  0  0  0  0
   -6.7479    3.2600    3.4339 H   0  0  0  0  0  0  0  0  0  0  0  0
   -5.8726    2.1046    1.9219 H   0  0  0  0  0  0  0  0  0  0  0  0
   -4.7420    0.0934    1.0644 H   0  0  0  0  0  0  0  0  0  0  0  0
  1  2  1  0
  1 30  1  6
  1 31  1  0
  1 32  1  0
  2  3  1  0
  2 33  1  6
  2 34  1  0
  3  4  1  0
 19  3  1  6
  4  5  1  0
  4 35  1  1
  4 36  1  0
  5  6  2  0
  5  7  1  0
  7  8  1  0
  7 37  1  0
  8  9  1  6
  8 10  1  0
  8 11  1  0
 10 38  1  1
 10 39  1  0
 10 40  1  0
 11 12  1  0
 11 41  1  6
 11 42  1  0
 12 13  1  0
 12 43  1  1
 12 44  1  0
 13 18  2  0
 13 14  1  0
 14 15  2  0
 14 45  1  0
 15 16  1  0
 15 46  1  0
 16 17  2  0
 16 47  1  0
 17 18  1  0
 17 48  1  0
 18 49  1  0
 19 20  2  0
 19 21  2  0
 19 22  1  0
 22 29  2  0
 22 23  1  0
 23 24  2  0
 23 50  1  0
 24 25  1  0
 24 51  1  0
 25 26  1  0
 25 28  2  0
 26 27  1  0
 27 52  1  1
 27 53  1  0
 27 54  1  0
 28 29  1  0
 28 55  1  0
 29 56  1  0
M  END
$$$$
