ZINC000022227157
     RDKit          3D

 49 50  0  0  0  0  0  0  0  0999 V2000
   -0.0187    1.5258    0.0104 C   0  0  1  0  0  0  0  0  0  0  0  0
    0.0021   -0.0041    0.0020 C   0  0  1  0  0  0  0  0  0  0  0  0
    0.7106   -0.4894    1.1889 N   0  0  0  0  0  0  0  0  0  0  0  0
   -0.0062   -0.6460    2.4569 C   0  0  1  0  0  0  0  0  0  0  0  0
   -0.6935   -2.0126    2.4888 C   0  0  1  0  0  0  0  0  0  0  0  0
    2.3218   -0.8609    1.0971 S   0  0  1  0  0  0  0  0  0  0  0  0
    2.5823   -1.7795    2.1496 O   0  0  0  0  0  0  0  0  0  0  0  0
    2.5905   -1.1471   -0.2686 O   0  0  0  0  0  0  0  0  0  0  0  0
    3.2182    0.6060    1.4837 C   0  0  0  0  0  0  0  0  0  0  0  0
    3.5687    1.4871    0.4779 C   0  0  0  0  0  0  0  0  0  0  0  0
    4.2720    2.6379    0.7812 C   0  0  0  0  0  0  0  0  0  0  0  0
    4.6242    2.9079    2.0903 C   0  0  0  0  0  0  0  0  0  0  0  0
    5.3913    4.1622    2.4209 C   0  0  1  0  0  0  0  0  0  0  0  0
    4.4092    5.2965    2.7205 C   0  0  1  0  0  0  0  0  0  0  0  0
    5.1549    6.5159    3.0418 N   0  0  0  0  0  0  0  0  0  0  0  0
    4.4932    7.6512    3.3415 C   0  0  0  0  0  0  0  0  0  0  0  0
    3.2805    7.6633    3.3452 O   0  0  0  0  0  0  0  0  0  0  0  0
    5.2603    8.9055    3.6721 C   0  0  1  0  0  0  0  0  0  0  0  0
    4.2930   10.0228    3.9671 C   0  0  0  0  0  0  0  0  0  0  0  0
    3.8039   10.3183    5.1724 C   0  0  0  0  0  0  0  0  0  0  0  0
    2.9290   11.3906    5.2001 C   0  0  0  0  0  0  0  0  0  0  0  0
    2.7076   11.9660    4.0172 C   0  0  0  0  0  0  0  0  0  0  0  0
    3.6421   11.1415    2.7761 S   0  0  0  0  0  0  0  0  0  0  0  0
    4.2724    2.0275    3.0963 C   0  0  0  0  0  0  0  0  0  0  0  0
    3.5659    0.8785    2.7936 C   0  0  0  0  0  0  0  0  0  0  0  0
    1.0039    1.9031    0.0027 H   0  0  0  0  0  0  0  0  0  0  0  0
   -0.5459    1.8868   -0.8726 H   0  0  0  0  0  0  0  0  0  0  0  0
   -0.5289    1.8773    0.9072 H   0  0  0  0  0  0  0  0  0  0  0  0
   -1.0205   -0.3814    0.0098 H   0  0  0  0  0  0  0  0  0  0  0  0
    0.5123   -0.3556   -0.8948 H   0  0  0  0  0  0  0  0  0  0  0  0
    0.6997   -0.5749    3.2845 H   0  0  0  0  0  0  0  0  0  0  0  0
   -0.7557    0.1399    2.5501 H   0  0  0  0  0  0  0  0  0  0  0  0
   -1.3993   -2.0837    1.6613 H   0  0  0  0  0  0  0  0  0  0  0  0
    0.0560   -2.7985    2.3957 H   0  0  0  0  0  0  0  0  0  0  0  0
   -1.2268   -2.1291    3.4323 H   0  0  0  0  0  0  0  0  0  0  0  0
    3.2935    1.2761   -0.5449 H   0  0  0  0  0  0  0  0  0  0  0  0
    4.5465    3.3259   -0.0048 H   0  0  0  0  0  0  0  0  0  0  0  0
    6.0188    3.9848    3.2943 H   0  0  0  0  0  0  0  0  0  0  0  0
    6.0182    4.4388    1.5732 H   0  0  0  0  0  0  0  0  0  0  0  0
    3.7816    5.4739    1.8471 H   0  0  0  0  0  0  0  0  0  0  0  0
    3.7823    5.0200    3.5682 H   0  0  0  0  0  0  0  0  0  0  0  0
    6.1248    6.5062    3.0389 H   0  0  0  0  0  0  0  0  0  0  0  0
    5.8878    8.7281    4.5454 H   0  0  0  0  0  0  0  0  0  0  0  0
    5.8872    9.1821    2.8243 H   0  0  0  0  0  0  0  0  0  0  0  0
    4.0701    9.7627    6.0595 H   0  0  0  0  0  0  0  0  0  0  0  0
    2.4609   11.7351    6.1104 H   0  0  0  0  0  0  0  0  0  0  0  0
    2.0569   12.8112    3.8481 H   0  0  0  0  0  0  0  0  0  0  0  0
    4.5473    2.2386    4.1192 H   0  0  0  0  0  0  0  0  0  0  0  0
    3.2910    0.1907    3.5795 H   0  0  0  0  0  0  0  0  0  0  0  0
  1  2  1  0
  1 26  1  6
  1 27  1  0
  1 28  1  0
  2  3  1  0
  2 29  1  1
  2 30  1  0
  3  4  1  0
  6  3  1  6
  4  5  1  0
  4 31  1  1
  4 32  1  0
  5 33  1  6
  5 34  1  0
  5 35  1  0
  6  7  2  0
  6  8  2  0
  6  9  1  0
  9 25  2  0
  9 10  1  0
 10 11  2  0
 10 36  1  0
 11 12  1  0
 11 37  1  0
 12 13  1  0
 12 24  2  0
 13 14  1  0
 13 38  1  1
 13 39  1  0
 14 15  1  0
 14 40  1  6
 14 41  1  0
 15 16  1  0
 15 42  1  0
 16 17  2  0
 16 18  1  0
 18 19  1  0
 18 43  1  1
 18 44  1  0
 19 23  1  0
 19 20  2  0
 20 21  1  0
 20 45  1  0
 21 22  2  0
 21 46  1  0
 22 23  1  0
 22 47  1  0
 24 25  1  0
 24 48  1  0
 25 49  1  0
M  END
$$$$
