ZINC000058441530
     RDKit          3D

 47 49  0  0  1  0  0  0  0  0999 V2000
   -0.0135    1.0115   -0.8091 O   0  0  0  0  0  0  0  0  0  0  0  0
    0.3578    1.7657    0.0651 C   0  0  0  0  0  0  0  0  0  0  0  0
    1.7999    2.1993    0.1238 C   0  0  2  0  0  0  0  0  0  0  0  0
    1.9522    2.8458    0.9881 H   0  0  0  0  0  0  0  0  0  0  0  0
    2.1599    2.9600   -1.1563 C   0  0  1  0  0  0  0  0  0  0  0  0
    3.6574    3.2759   -1.1531 C   0  0  1  0  0  0  0  0  0  0  0  0
    4.4558    1.9705   -1.1262 C   0  0  1  0  0  0  0  0  0  0  0  0
    4.1218    1.1987    0.1543 C   0  0  1  0  0  0  0  0  0  0  0  0
    2.6656    1.0173    0.2343 N   0  0  0  0  0  0  0  0  0  0  0  0
    2.0131   -0.4909    0.4388 S   0  0  1  0  0  0  0  0  0  0  0  0
    1.0797   -0.6708   -0.6174 O   0  0  0  0  0  0  0  0  0  0  0  0
    3.1037   -1.3718    0.6706 O   0  0  0  0  0  0  0  0  0  0  0  0
    1.0760   -0.4559    1.9305 C   0  0  0  0  0  0  0  0  0  0  0  0
   -0.2714   -0.7621    1.9075 C   0  0  0  0  0  0  0  0  0  0  0  0
   -1.0069   -0.7347    3.0780 C   0  0  0  0  0  0  0  0  0  0  0  0
   -2.4762   -1.0687    3.0522 C   0  0  1  0  0  0  0  0  0  0  0  0
   -2.6540   -2.4163    3.3832 F   0  0  0  0  0  0  0  0  0  0  0  0
   -3.1528   -0.2679    3.9786 F   0  0  0  0  0  0  0  0  0  0  0  0
   -2.9859   -0.8320    1.7711 F   0  0  0  0  0  0  0  0  0  0  0  0
   -0.3950   -0.4015    4.2717 C   0  0  0  0  0  0  0  0  0  0  0  0
    0.9527   -0.0950    4.2959 C   0  0  0  0  0  0  0  0  0  0  0  0
    1.6903   -0.1274    3.1261 C   0  0  0  0  0  0  0  0  0  0  0  0
    3.3828    0.2573    3.1557 Cl  0  0  0  0  0  0  0  0  0  0  0  0
   -0.5204    2.2203    0.9809 N   0  0  0  0  0  0  0  0  0  0  0  0
   -0.2323    3.2152    2.0242 C   0  0  1  0  0  0  0  0  0  0  0  0
   -1.5239    3.4025    2.8478 C   0  0  1  0  0  0  0  0  0  0  0  0
   -2.3018    2.0874    2.5780 C   0  0  1  0  0  0  0  0  0  0  0  0
   -1.9306    1.8069    1.0982 C   0  0  1  0  0  0  0  0  0  0  0  0
    1.9195    2.3459   -2.0242 H   0  0  0  0  0  0  0  0  0  0  0  0
    1.5921    3.8894   -1.1991 H   0  0  0  0  0  0  0  0  0  0  0  0
    3.9117    3.8386   -2.0513 H   0  0  0  0  0  0  0  0  0  0  0  0
    3.9015    3.8691   -0.2719 H   0  0  0  0  0  0  0  0  0  0  0  0
    4.1937    1.3658   -1.9943 H   0  0  0  0  0  0  0  0  0  0  0  0
    5.5221    2.1957   -1.1475 H   0  0  0  0  0  0  0  0  0  0  0  0
    4.6107    0.2248    0.1319 H   0  0  0  0  0  0  0  0  0  0  0  0
    4.4658    1.7628    1.0212 H   0  0  0  0  0  0  0  0  0  0  0  0
   -0.7500   -1.0225    0.9751 H   0  0  0  0  0  0  0  0  0  0  0  0
   -0.9700   -0.3802    5.1856 H   0  0  0  0  0  0  0  0  0  0  0  0
    1.4308    0.1653    5.2288 H   0  0  0  0  0  0  0  0  0  0  0  0
    0.5694    2.8549    2.6688 H   0  0  0  0  0  0  0  0  0  0  0  0
    0.0550    4.1612    1.5652 H   0  0  0  0  0  0  0  0  0  0  0  0
   -1.2937    3.5037    3.9084 H   0  0  0  0  0  0  0  0  0  0  0  0
   -2.0876    4.2642    2.4905 H   0  0  0  0  0  0  0  0  0  0  0  0
   -1.9534    1.2865    3.2303 H   0  0  0  0  0  0  0  0  0  0  0  0
   -3.3756    2.2391    2.6877 H   0  0  0  0  0  0  0  0  0  0  0  0
   -2.5606    2.3952    0.4310 H   0  0  0  0  0  0  0  0  0  0  0  0
   -2.0306    0.7444    0.8768 H   0  0  0  0  0  0  0  0  0  0  0  0
  1  2  2  0
  2  3  1  0
  2 24  1  0
  3  4  1  1
  3  9  1  0
  3  5  1  0
  5  6  1  0
  5 29  1  6
  5 30  1  0
  6  7  1  0
  6 31  1  6
  6 32  1  0
  7  8  1  0
  7 33  1  6
  7 34  1  0
  8  9  1  0
  8 35  1  6
  8 36  1  0
 10  9  1  6
 10 11  2  0
 10 12  2  0
 10 13  1  0
 13 22  2  0
 13 14  1  0
 14 15  2  0
 14 37  1  0
 15 16  1  0
 15 20  1  0
 16 17  1  1
 16 18  1  0
 16 19  1  0
 20 21  2  0
 20 38  1  0
 21 22  1  0
 21 39  1  0
 22 23  1  0
 24 28  1  0
 24 25  1  0
 25 26  1  0
 25 40  1  1
 25 41  1  0
 26 27  1  0
 26 42  1  1
 26 43  1  0
 27 28  1  0
 27 44  1  1
 27 45  1  0
 28 46  1  6
 28 47  1  0
M  END
$$$$
