ZINC000006844205
     RDKit          3D

 41 43  0  0  1  0  0  0  0  0999 V2000
   -0.0187    1.5258    0.0104 C   0  0  1  0  0  0  0  0  0  0  0  0
    0.0021   -0.0041    0.0020 C   0  0  2  0  0  0  0  0  0  0  0  0
    0.5109   -0.3640   -0.8922 H   0  0  0  0  0  0  0  0  0  0  0  0
   -1.4108   -0.5392    0.0421 C   0  0  0  0  0  0  0  0  0  0  0  0
   -2.3276   -0.5049   -0.9375 C   0  0  0  0  0  0  0  0  0  0  0  0
   -3.4969   -1.1161   -0.4388 C   0  0  0  0  0  0  0  0  0  0  0  0
   -3.2431   -1.5016    0.8295 C   0  0  0  0  0  0  0  0  0  0  0  0
   -1.9623   -1.1554    1.1324 N   0  0  0  0  0  0  0  0  0  0  0  0
   -1.2609   -1.3933    2.3988 C   0  0  1  0  0  0  0  0  0  0  0  0
   -0.0447   -0.4654    2.4842 C   0  0  1  0  0  0  0  0  0  0  0  0
    0.6885   -0.5047    1.2075 N   0  0  0  0  0  0  0  0  0  0  0  0
    2.2344   -1.0933    1.1299 S   0  0  1  0  0  0  0  0  0  0  0  0
    2.8289   -0.5090   -0.0208 O   0  0  0  0  0  0  0  0  0  0  0  0
    2.7787   -0.9647    2.4362 O   0  0  0  0  0  0  0  0  0  0  0  0
    2.1188   -2.8216    0.8071 C   0  0  0  0  0  0  0  0  0  0  0  0
    2.0438   -3.7174    1.8572 C   0  0  0  0  0  0  0  0  0  0  0  0
    1.9531   -5.0733    1.6039 C   0  0  0  0  0  0  0  0  0  0  0  0
    1.8718   -6.0500    2.7487 C   0  0  1  0  0  0  0  0  0  0  0  0
    0.5309   -6.2612    3.0871 F   0  0  0  0  0  0  0  0  0  0  0  0
    2.4536   -7.2640    2.3683 F   0  0  0  0  0  0  0  0  0  0  0  0
    2.5554   -5.5312    3.8536 F   0  0  0  0  0  0  0  0  0  0  0  0
    1.9366   -5.5334    0.3005 C   0  0  0  0  0  0  0  0  0  0  0  0
    2.0112   -4.6375   -0.7497 C   0  0  0  0  0  0  0  0  0  0  0  0
    1.9937   -5.1391   -2.1707 C   0  0  1  0  0  0  0  0  0  0  0  0
    1.8972   -6.5348   -2.1714 F   0  0  0  0  0  0  0  0  0  0  0  0
    0.8943   -4.5953   -2.8436 F   0  0  0  0  0  0  0  0  0  0  0  0
    3.1733   -4.7528   -2.8161 F   0  0  0  0  0  0  0  0  0  0  0  0
    2.0976   -3.2813   -0.4964 C   0  0  0  0  0  0  0  0  0  0  0  0
    1.0039    1.9031    0.0027 H   0  0  0  0  0  0  0  0  0  0  0  0
   -0.5459    1.8868   -0.8726 H   0  0  0  0  0  0  0  0  0  0  0  0
   -0.5289    1.8773    0.9072 H   0  0  0  0  0  0  0  0  0  0  0  0
   -2.1947   -0.0866   -1.9243 H   0  0  0  0  0  0  0  0  0  0  0  0
   -4.4253   -1.2509   -0.9739 H   0  0  0  0  0  0  0  0  0  0  0  0
   -3.9372   -1.9994    1.4905 H   0  0  0  0  0  0  0  0  0  0  0  0
   -1.9339   -1.1891    3.2316 H   0  0  0  0  0  0  0  0  0  0  0  0
   -0.9308   -2.4312    2.4427 H   0  0  0  0  0  0  0  0  0  0  0  0
   -0.3775    0.5535    2.6821 H   0  0  0  0  0  0  0  0  0  0  0  0
    0.6106   -0.7975    3.2895 H   0  0  0  0  0  0  0  0  0  0  0  0
    2.0563   -3.3580    2.8756 H   0  0  0  0  0  0  0  0  0  0  0  0
    1.8658   -6.5927    0.1026 H   0  0  0  0  0  0  0  0  0  0  0  0
    2.1558   -2.5814   -1.3169 H   0  0  0  0  0  0  0  0  0  0  0  0
  1  2  1  0
  1 29  1  6
  1 30  1  0
  1 31  1  0
  2  3  1  6
  2 11  1  0
  2  4  1  0
  4  8  1  0
  4  5  2  0
  5  6  1  0
  5 32  1  0
  6  7  2  0
  6 33  1  0
  7  8  1  0
  7 34  1  0
  8  9  1  0
  9 10  1  0
  9 35  1  1
  9 36  1  0
 10 11  1  0
 10 37  1  1
 10 38  1  0
 12 11  1  1
 12 13  2  0
 12 14  2  0
 12 15  1  0
 15 28  2  0
 15 16  1  0
 16 17  2  0
 16 39  1  0
 17 18  1  0
 17 22  1  0
 18 19  1  1
 18 20  1  0
 18 21  1  0
 22 23  2  0
 22 40  1  0
 23 24  1  0
 23 28  1  0
 24 25  1  1
 24 26  1  0
 24 27  1  0
 28 41  1  0
M  END
$$$$
