ZINC000096340609
     RDKit          3D

 50 52  0  0  0  0  0  0  0  0999 V2000
   -0.0187    1.5258    0.0104 C   0  0  1  0  0  0  0  0  0  0  0  0
    0.0021   -0.0041    0.0020 C   0  0  1  0  0  0  0  0  0  0  0  0
    0.7421   -0.5109    1.2415 C   0  0  1  0  0  0  0  0  0  0  0  0
   -1.4333   -0.5336    0.0129 C   0  0  1  0  0  0  0  0  0  0  0  0
    0.7074   -0.4901   -1.2379 C   0  0  0  0  0  0  0  0  0  0  0  0
    0.0361   -1.2843   -2.1485 C   0  0  0  0  0  0  0  0  0  0  0  0
    0.6831   -1.7301   -3.2859 C   0  0  0  0  0  0  0  0  0  0  0  0
    2.0014   -1.3813   -3.5127 C   0  0  0  0  0  0  0  0  0  0  0  0
    2.8263   -1.9500   -4.9621 S   0  0  1  0  0  0  0  0  0  0  0  0
    4.2162   -1.9274   -4.6677 O   0  0  0  0  0  0  0  0  0  0  0  0
    2.1396   -3.1214   -5.3811 O   0  0  0  0  0  0  0  0  0  0  0  0
    2.5799   -0.8158   -6.1433 N   0  0  0  0  0  0  0  0  0  0  0  0
    1.4148   -0.9037   -7.0342 C   0  0  1  0  0  0  0  0  0  0  0  0
    0.6577    0.4273   -6.9886 C   0  0  1  0  0  0  0  0  0  0  0  0
    1.6204    1.5689   -7.3235 C   0  0  1  0  0  0  0  0  0  0  0  0
    0.8714    2.8766   -7.3130 C   0  0  0  0  0  0  0  0  0  0  0  0
    0.2388    3.3945   -6.2987 N   0  0  0  0  0  0  0  0  0  0  0  0
   -0.2835    4.5169   -6.6492 N   0  0  0  0  0  0  0  0  0  0  0  0
   -0.0019    4.7533   -7.8990 C   0  0  0  0  0  0  0  0  0  0  0  0
   -0.4243    5.9609   -8.6954 C   0  0  1  0  0  0  0  0  0  0  0  0
   -1.0823    6.8662   -7.8559 F   0  0  0  0  0  0  0  0  0  0  0  0
    0.7056    6.5737   -9.2478 F   0  0  0  0  0  0  0  0  0  0  0  0
   -1.2882    5.5639   -9.7216 F   0  0  0  0  0  0  0  0  0  0  0  0
    0.7385    3.7251   -8.3462 O   0  0  0  0  0  0  0  0  0  0  0  0
    2.7415    1.6150   -6.2828 C   0  0  1  0  0  0  0  0  0  0  0  0
    3.5189    0.3009   -6.3164 C   0  0  1  0  0  0  0  0  0  0  0  0
    2.6723   -0.5859   -2.6027 C   0  0  0  0  0  0  0  0  0  0  0  0
    2.0241   -0.1370   -1.4673 C   0  0  0  0  0  0  0  0  0  0  0  0
    1.0039    1.9031    0.0027 H   0  0  0  0  0  0  0  0  0  0  0  0
   -0.5459    1.8868   -0.8726 H   0  0  0  0  0  0  0  0  0  0  0  0
   -0.5289    1.8773    0.9072 H   0  0  0  0  0  0  0  0  0  0  0  0
    0.2319   -0.1594    2.1383 H   0  0  0  0  0  0  0  0  0  0  0  0
    0.7568   -1.6008    1.2356 H   0  0  0  0  0  0  0  0  0  0  0  0
    1.7647   -0.1336    1.2338 H   0  0  0  0  0  0  0  0  0  0  0  0
   -1.9605   -0.1726   -0.8702 H   0  0  0  0  0  0  0  0  0  0  0  0
   -1.4185   -1.6235    0.0069 H   0  0  0  0  0  0  0  0  0  0  0  0
   -1.9435   -0.1821    0.9097 H   0  0  0  0  0  0  0  0  0  0  0  0
   -0.9938   -1.5568   -1.9713 H   0  0  0  0  0  0  0  0  0  0  0  0
    0.1588   -2.3512   -3.9970 H   0  0  0  0  0  0  0  0  0  0  0  0
    1.7481   -1.0998   -8.0533 H   0  0  0  0  0  0  0  0  0  0  0  0
    0.7596   -1.7084   -6.7006 H   0  0  0  0  0  0  0  0  0  0  0  0
   -0.1532    0.4097   -7.7168 H   0  0  0  0  0  0  0  0  0  0  0  0
    0.2475    0.5784   -5.9901 H   0  0  0  0  0  0  0  0  0  0  0  0
    2.0493    1.4040   -8.3119 H   0  0  0  0  0  0  0  0  0  0  0  0
    3.4137    2.4428   -6.5086 H   0  0  0  0  0  0  0  0  0  0  0  0
    2.3116    1.7550   -5.2909 H   0  0  0  0  0  0  0  0  0  0  0  0
    4.2537    0.2903   -5.5114 H   0  0  0  0  0  0  0  0  0  0  0  0
    4.0245    0.1999   -7.2768 H   0  0  0  0  0  0  0  0  0  0  0  0
    3.7021   -0.3131   -2.7802 H   0  0  0  0  0  0  0  0  0  0  0  0
    2.5483    0.4845   -0.7563 H   0  0  0  0  0  0  0  0  0  0  0  0
  1  2  1  0
  1 29  1  6
  1 30  1  0
  1 31  1  0
  2  3  1  0
  2  4  1  0
  2  5  1  6
  3 32  1  1
  3 33  1  0
  3 34  1  0
  4 35  1  6
  4 36  1  0
  4 37  1  0
  5 28  2  0
  5  6  1  0
  6  7  2  0
  6 38  1  0
  7  8  1  0
  7 39  1  0
  8  9  1  0
  8 27  2  0
  9 10  2  0
  9 11  2  0
  9 12  1  6
 12 26  1  0
 12 13  1  0
 13 14  1  0
 13 40  1  6
 13 41  1  0
 14 15  1  0
 14 42  1  6
 14 43  1  0
 15 16  1  0
 15 25  1  0
 15 44  1  6
 16 24  1  0
 16 17  2  0
 17 18  1  0
 18 19  2  0
 19 20  1  0
 19 24  1  0
 20 21  1  1
 20 22  1  0
 20 23  1  0
 25 26  1  0
 25 45  1  6
 25 46  1  0
 26 47  1  1
 26 48  1  0
 27 28  1  0
 27 49  1  0
 28 50  1  0
M  END
$$$$
