ZINC000015443709
     RDKit          3D

 23 23  0  0  0  0  0  0  0  0999 V2000
   -0.0225    1.8097    0.0120 C   0  0  1  0  0  0  0  0  0  0  0  0
    0.0021   -0.0041    0.0020 S   0  0  1  0  0  0  0  0  0  0  0  0
    0.8448   -0.4970    1.0346 O   0  0  0  0  0  0  0  0  0  0  0  0
   -1.3093   -0.5195   -0.1821 O   0  0  0  0  0  0  0  0  0  0  0  0
    0.8469   -0.4241   -1.4861 C   0  0  0  0  0  0  0  0  0  0  0  0
    2.0620   -1.0739   -1.4312 C   0  0  0  0  0  0  0  0  0  0  0  0
    2.7268   -1.4051   -2.5991 C   0  0  0  0  0  0  0  0  0  0  0  0
    2.1788   -1.0870   -3.8291 C   0  0  0  0  0  0  0  0  0  0  0  0
    2.9107   -1.4514   -5.0950 C   0  0  1  0  0  0  0  0  0  0  0  0
    4.1086   -2.0976   -4.7715 F   0  0  0  0  0  0  0  0  0  0  0  0
    2.1136   -2.3050   -5.8652 F   0  0  0  0  0  0  0  0  0  0  0  0
    3.1893   -0.2899   -5.8234 F   0  0  0  0  0  0  0  0  0  0  0  0
    0.9639   -0.4375   -3.8993 C   0  0  0  0  0  0  0  0  0  0  0  0
    0.2846   -0.1048   -2.7248 C   0  0  0  0  0  0  0  0  0  0  0  0
   -1.0155    0.5894   -2.7918 C   0  0  0  0  0  0  0  0  0  0  0  0
   -1.5010    0.8751   -3.8772 O   0  0  0  0  0  0  0  0  0  0  0  0
   -1.6077    0.8793   -1.7618 O   0  0  0  0  0  0  0  0  0  0  0  0
    1.0001    2.1870    0.0043 H   0  0  0  0  0  0  0  0  0  0  0  0
   -0.5497    2.1708   -0.8711 H   0  0  0  0  0  0  0  0  0  0  0  0
   -0.5327    2.1613    0.9088 H   0  0  0  0  0  0  0  0  0  0  0  0
    2.4961   -1.3247   -0.4746 H   0  0  0  0  0  0  0  0  0  0  0  0
    3.6782   -1.9139   -2.5501 H   0  0  0  0  0  0  0  0  0  0  0  0
    0.5371   -0.1901   -4.8601 H   0  0  0  0  0  0  0  0  0  0  0  0
  1  2  1  0
  1 18  1  6
  1 19  1  0
  1 20  1  0
  2  3  2  0
  2  4  2  0
  2  5  1  6
  5 14  2  0
  5  6  1  0
  6  7  2  0
  6 21  1  0
  7  8  1  0
  7 22  1  0
  8  9  1  0
  8 13  2  0
  9 10  1  1
  9 11  1  0
  9 12  1  0
 13 14  1  0
 13 23  1  0
 14 15  1  0
 15 16  2  0
 15 17  1  0
M  END
$$$$
