ZINC000408622905
     RDKit          3D

 50 50  0  0  0  0  0  0  0  0999 V2000
   -0.0187    1.5258    0.0104 C   0  0  1  0  0  0  0  0  0  0  0  0
    0.0021   -0.0041    0.0020 C   0  0  1  0  0  0  0  0  0  0  0  0
    0.6878   -0.4765   -1.2033 N   0  0  0  0  0  0  0  0  0  0  0  0
    2.1478   -0.5966   -1.2159 C   0  0  1  0  0  0  0  0  0  0  0  0
    2.5532   -1.9514   -0.6319 C   0  0  1  0  0  0  0  0  0  0  0  0
   -0.1875   -0.8749   -2.5515 S   0  0  1  0  0  0  0  0  0  0  0  0
    0.6166   -1.7761   -3.3001 O   0  0  0  0  0  0  0  0  0  0  0  0
   -1.4970   -1.1925   -2.1004 O   0  0  0  0  0  0  0  0  0  0  0  0
   -0.3375    0.5853   -3.5262 C   0  0  0  0  0  0  0  0  0  0  0  0
   -1.4064    1.4399   -3.3289 C   0  0  0  0  0  0  0  0  0  0  0  0
   -1.5263    2.5854   -4.0918 C   0  0  0  0  0  0  0  0  0  0  0  0
   -0.5728    2.8781   -5.0561 C   0  0  0  0  0  0  0  0  0  0  0  0
   -0.6883    4.0045   -5.8076 O   0  0  0  0  0  0  0  0  0  0  0  0
    0.3301    4.2420   -6.7815 C   0  0  1  0  0  0  0  0  0  0  0  0
    0.0367    5.5269   -7.5122 C   0  0  0  0  0  0  0  0  0  0  0  0
   -0.9477    6.1755   -7.2270 O   0  0  0  0  0  0  0  0  0  0  0  0
    0.8681    5.9553   -8.4825 N   0  0  0  0  0  0  0  0  0  0  0  0
    0.5828    7.2044   -9.1929 C   0  0  1  0  0  0  0  0  0  0  0  0
    1.6732    7.4586  -10.2356 C   0  0  1  0  0  0  0  0  0  0  0  0
    1.3753    8.7632  -10.9774 C   0  0  1  0  0  0  0  0  0  0  0  0
    2.3938    9.0006  -11.9513 O   0  0  0  0  0  0  0  0  0  0  0  0
    2.2094   10.2011  -12.7043 C   0  0  1  0  0  0  0  0  0  0  0  0
    0.4989    2.0192   -5.2518 C   0  0  0  0  0  0  0  0  0  0  0  0
    0.6169    0.8775   -4.4830 C   0  0  0  0  0  0  0  0  0  0  0  0
    1.0039    1.9031    0.0027 H   0  0  0  0  0  0  0  0  0  0  0  0
   -0.5459    1.8868   -0.8726 H   0  0  0  0  0  0  0  0  0  0  0  0
   -0.5289    1.8773    0.9072 H   0  0  0  0  0  0  0  0  0  0  0  0
    0.5293   -0.3651    0.8851 H   0  0  0  0  0  0  0  0  0  0  0  0
   -1.0205   -0.3814    0.0098 H   0  0  0  0  0  0  0  0  0  0  0  0
    2.5098   -0.5199   -2.2412 H   0  0  0  0  0  0  0  0  0  0  0  0
    2.5833    0.2026   -0.6162 H   0  0  0  0  0  0  0  0  0  0  0  0
    2.1177   -2.7506   -1.2316 H   0  0  0  0  0  0  0  0  0  0  0  0
    3.6395   -2.0407   -0.6413 H   0  0  0  0  0  0  0  0  0  0  0  0
    2.1912   -2.0280    0.3934 H   0  0  0  0  0  0  0  0  0  0  0  0
   -2.1483    1.2116   -2.5781 H   0  0  0  0  0  0  0  0  0  0  0  0
   -2.3617    3.2523   -3.9379 H   0  0  0  0  0  0  0  0  0  0  0  0
    1.2971    4.3193   -6.2845 H   0  0  0  0  0  0  0  0  0  0  0  0
    0.3522    3.4164   -7.4928 H   0  0  0  0  0  0  0  0  0  0  0  0
    1.6554    5.4366   -8.7106 H   0  0  0  0  0  0  0  0  0  0  0  0
   -0.3842    7.1271   -9.6899 H   0  0  0  0  0  0  0  0  0  0  0  0
    0.5608    8.0300   -8.4815 H   0  0  0  0  0  0  0  0  0  0  0  0
    2.6403    7.5360   -9.7386 H   0  0  0  0  0  0  0  0  0  0  0  0
    1.6953    6.6330  -10.9469 H   0  0  0  0  0  0  0  0  0  0  0  0
    0.4083    8.6858  -11.4744 H   0  0  0  0  0  0  0  0  0  0  0  0
    1.3532    9.5888  -10.2661 H   0  0  0  0  0  0  0  0  0  0  0  0
    1.2597   10.1536  -13.2371 H   0  0  0  0  0  0  0  0  0  0  0  0
    2.2047   11.0565  -12.0288 H   0  0  0  0  0  0  0  0  0  0  0  0
    3.0233   10.3088  -13.4213 H   0  0  0  0  0  0  0  0  0  0  0  0
    1.2423    2.2447   -6.0021 H   0  0  0  0  0  0  0  0  0  0  0  0
    1.4512    0.2087   -4.6347 H   0  0  0  0  0  0  0  0  0  0  0  0
  1  2  1  0
  1 25  1  6
  1 26  1  0
  1 27  1  0
  2  3  1  0
  2 28  1  1
  2 29  1  0
  3  4  1  0
  6  3  1  1
  4  5  1  0
  4 30  1  6
  4 31  1  0
  5 32  1  6
  5 33  1  0
  5 34  1  0
  6  7  2  0
  6  8  2  0
  6  9  1  0
  9 24  2  0
  9 10  1  0
 10 11  2  0
 10 35  1  0
 11 12  1  0
 11 36  1  0
 12 13  1  0
 12 23  2  0
 13 14  1  0
 14 15  1  0
 14 37  1  1
 14 38  1  0
 15 16  2  0
 15 17  1  0
 17 18  1  0
 17 39  1  0
 18 19  1  0
 18 40  1  6
 18 41  1  0
 19 20  1  0
 19 42  1  1
 19 43  1  0
 20 21  1  0
 20 44  1  6
 20 45  1  0
 21 22  1  0
 22 46  1  6
 22 47  1  0
 22 48  1  0
 23 24  1  0
 23 49  1  0
 24 50  1  0
M  END
$$$$
