ZINC000004811634
     RDKit          3D

 57 58  0  0  0  0  0  0  0  0999 V2000
   -0.0173    1.4248    0.0099 C   0  0  1  0  0  0  0  0  0  0  0  0
    0.0021   -0.0041    0.0020 O   0  0  0  0  0  0  0  0  0  0  0  0
    0.6734   -0.5824    1.1231 C   0  0  1  0  0  0  0  0  0  0  0  0
    0.6327   -2.1077    1.0107 C   0  0  1  0  0  0  0  0  0  0  0  0
    1.3514   -2.7270    2.2110 C   0  0  1  0  0  0  0  0  0  0  0  0
    1.3125   -4.1875    2.1034 N   0  0  0  0  0  0  0  0  0  0  0  0
    1.8871   -4.9489    3.0555 C   0  0  0  0  0  0  0  0  0  0  0  0
    2.4365   -4.4251    4.0013 O   0  0  0  0  0  0  0  0  0  0  0  0
    1.8470   -6.4513    2.9447 C   0  0  1  0  0  0  0  0  0  0  0  0
    2.5352   -7.0443    4.0941 N   0  0  0  0  0  0  0  0  0  0  0  0
    1.8124   -7.2579    5.3503 C   0  0  1  0  0  0  0  0  0  0  0  0
    1.0708   -8.5948    5.2910 C   0  0  1  0  0  0  0  0  0  0  0  0
    0.3273   -8.8146    6.5832 C   0  0  0  0  0  0  0  0  0  0  0  0
    0.9468   -9.4625    7.6355 C   0  0  0  0  0  0  0  0  0  0  0  0
    0.2648   -9.6641    8.8209 C   0  0  0  0  0  0  0  0  0  0  0  0
   -1.0366   -9.2174    8.9542 C   0  0  0  0  0  0  0  0  0  0  0  0
   -1.6558   -8.5687    7.9022 C   0  0  0  0  0  0  0  0  0  0  0  0
   -0.9723   -8.3633    6.7183 C   0  0  0  0  0  0  0  0  0  0  0  0
    4.1302   -7.4730    3.9732 S   0  0  1  0  0  0  0  0  0  0  0  0
    4.3534   -8.4707    4.9602 O   0  0  0  0  0  0  0  0  0  0  0  0
    4.3874   -7.6762    2.5906 O   0  0  0  0  0  0  0  0  0  0  0  0
    5.0847   -6.0729    4.4564 C   0  0  0  0  0  0  0  0  0  0  0  0
    5.4700   -5.1407    3.5107 C   0  0  0  0  0  0  0  0  0  0  0  0
    6.2183   -4.0421    3.8870 C   0  0  0  0  0  0  0  0  0  0  0  0
    6.5828   -3.8745    5.2150 C   0  0  0  0  0  0  0  0  0  0  0  0
    7.3186   -2.7944    5.5877 O   0  0  0  0  0  0  0  0  0  0  0  0
    7.6574   -2.6865    6.9718 C   0  0  1  0  0  0  0  0  0  0  0  0
    6.1946   -4.8110    6.1620 C   0  0  0  0  0  0  0  0  0  0  0  0
    5.4422   -5.9053    5.7815 C   0  0  0  0  0  0  0  0  0  0  0  0
    1.0053    1.8021    0.0021 H   0  0  0  0  0  0  0  0  0  0  0  0
   -0.5445    1.7859   -0.8732 H   0  0  0  0  0  0  0  0  0  0  0  0
   -0.5275    1.7763    0.9067 H   0  0  0  0  0  0  0  0  0  0  0  0
    1.7103   -0.2468    1.1385 H   0  0  0  0  0  0  0  0  0  0  0  0
    0.1775   -0.2725    2.0430 H   0  0  0  0  0  0  0  0  0  0  0  0
   -0.4042   -2.4434    0.9953 H   0  0  0  0  0  0  0  0  0  0  0  0
    1.1285   -2.4176    0.0908 H   0  0  0  0  0  0  0  0  0  0  0  0
    2.3884   -2.3913    2.2264 H   0  0  0  0  0  0  0  0  0  0  0  0
    0.8556   -2.4171    3.1309 H   0  0  0  0  0  0  0  0  0  0  0  0
    0.8731   -4.6065    1.3469 H   0  0  0  0  0  0  0  0  0  0  0  0
    0.8101   -6.7870    2.9294 H   0  0  0  0  0  0  0  0  0  0  0  0
    2.3429   -6.7612    2.0248 H   0  0  0  0  0  0  0  0  0  0  0  0
    2.5204   -7.2716    6.1790 H   0  0  0  0  0  0  0  0  0  0  0  0
    1.0951   -6.4507    5.4986 H   0  0  0  0  0  0  0  0  0  0  0  0
    0.3628   -8.5811    4.4623 H   0  0  0  0  0  0  0  0  0  0  0  0
    1.7881   -9.4020    5.1427 H   0  0  0  0  0  0  0  0  0  0  0  0
    1.9636   -9.8115    7.5314 H   0  0  0  0  0  0  0  0  0  0  0  0
    0.7486  -10.1709    9.6428 H   0  0  0  0  0  0  0  0  0  0  0  0
   -1.5696   -9.3755    9.8800 H   0  0  0  0  0  0  0  0  0  0  0  0
   -2.6727   -8.2200    8.0062 H   0  0  0  0  0  0  0  0  0  0  0  0
   -1.4561   -7.8565    5.8964 H   0  0  0  0  0  0  0  0  0  0  0  0
    5.1860   -5.2717    2.4770 H   0  0  0  0  0  0  0  0  0  0  0  0
    6.5196   -3.3146    3.1478 H   0  0  0  0  0  0  0  0  0  0  0  0
    6.7453   -2.6389    7.5665 H   0  0  0  0  0  0  0  0  0  0  0  0
    8.2417   -3.5565    7.2716 H   0  0  0  0  0  0  0  0  0  0  0  0
    8.2439   -1.7820    7.1328 H   0  0  0  0  0  0  0  0  0  0  0  0
    6.4773   -4.6829    7.1964 H   0  0  0  0  0  0  0  0  0  0  0  0
    5.1394   -6.6345    6.5183 H   0  0  0  0  0  0  0  0  0  0  0  0
  1  2  1  0
  1 30  1  6
  1 31  1  0
  1 32  1  0
  2  3  1  0
  3  4  1  0
  3 33  1  1
  3 34  1  0
  4  5  1  0
  4 35  1  6
  4 36  1  0
  5  6  1  0
  5 37  1  1
  5 38  1  0
  6  7  1  0
  6 39  1  0
  7  8  2  0
  7  9  1  0
  9 10  1  0
  9 40  1  6
  9 41  1  0
 10 11  1  0
 19 10  1  6
 11 12  1  0
 11 42  1  1
 11 43  1  0
 12 13  1  0
 12 44  1  6
 12 45  1  0
 13 18  2  0
 13 14  1  0
 14 15  2  0
 14 46  1  0
 15 16  1  0
 15 47  1  0
 16 17  2  0
 16 48  1  0
 17 18  1  0
 17 49  1  0
 18 50  1  0
 19 20  2  0
 19 21  2  0
 19 22  1  0
 22 29  2  0
 22 23  1  0
 23 24  2  0
 23 51  1  0
 24 25  1  0
 24 52  1  0
 25 26  1  0
 25 28  2  0
 26 27  1  0
 27 53  1  1
 27 54  1  0
 27 55  1  0
 28 29  1  0
 28 56  1  0
 29 57  1  0
M  END
$$$$
