ZINC000237508180
     RDKit          3D

 40 41  0  0  1  0  0  0  0  0999 V2000
   -0.0187    1.5258    0.0104 C   0  0  1  0  0  0  0  0  0  0  0  0
    0.0021   -0.0041    0.0020 C   0  0  1  0  0  0  0  0  0  0  0  0
    0.5123   -0.3556   -0.8948 H   0  0  0  0  0  0  0  0  0  0  0  0
    0.7309   -0.5033    1.2229 C   0  0  0  0  0  0  0  0  0  0  0  0
    0.1148   -1.0603    2.1155 O   0  0  0  0  0  0  0  0  0  0  0  0
    1.9368   -0.3502    1.3181 O   0  0  0  0  0  0  0  0  0  0  0  0
   -1.3761   -0.5125    0.0124 N   0  0  0  0  0  0  0  0  0  0  0  0
   -2.1266    0.0242    1.1555 C   0  0  1  0  0  0  0  0  0  0  0  0
   -3.5991   -0.3813    1.0312 C   0  0  1  0  0  0  0  0  0  0  0  0
   -3.6697   -1.8417    0.8714 N   0  0  0  0  0  0  0  0  0  0  0  0
   -4.6598   -2.7552    1.8345 S   0  0  1  0  0  0  0  0  0  0  0  0
   -4.1184   -4.0690    1.8348 O   0  0  0  0  0  0  0  0  0  0  0  0
   -4.8724   -2.0019    3.0205 O   0  0  0  0  0  0  0  0  0  0  0  0
   -6.2215   -2.8608    1.0255 C   0  0  0  0  0  0  0  0  0  0  0  0
   -7.1931   -1.9092    1.2717 C   0  0  0  0  0  0  0  0  0  0  0  0
   -8.4186   -1.9921    0.6369 C   0  0  0  0  0  0  0  0  0  0  0  0
   -8.6718   -3.0264   -0.2442 C   0  0  0  0  0  0  0  0  0  0  0  0
   -7.6996   -3.9778   -0.4912 C   0  0  0  0  0  0  0  0  0  0  0  0
   -7.9760   -5.1058   -1.4516 C   0  0  1  0  0  0  0  0  0  0  0  0
   -9.2721   -4.9767   -1.9620 F   0  0  0  0  0  0  0  0  0  0  0  0
   -7.0540   -5.0596   -2.5029 F   0  0  0  0  0  0  0  0  0  0  0  0
   -7.8582   -6.3282   -0.7815 F   0  0  0  0  0  0  0  0  0  0  0  0
   -6.4731   -3.8925    0.1401 C   0  0  0  0  0  0  0  0  0  0  0  0
   -2.8379   -2.4691   -0.1667 C   0  0  1  0  0  0  0  0  0  0  0  0
   -1.3954   -1.9814    0.0047 C   0  0  1  0  0  0  0  0  0  0  0  0
    1.0039    1.9031    0.0027 H   0  0  0  0  0  0  0  0  0  0  0  0
   -0.5459    1.8868   -0.8726 H   0  0  0  0  0  0  0  0  0  0  0  0
   -0.5289    1.8773    0.9072 H   0  0  0  0  0  0  0  0  0  0  0  0
   -1.7156   -0.3776    2.0816 H   0  0  0  0  0  0  0  0  0  0  0  0
   -2.0482    1.1114    1.1639 H   0  0  0  0  0  0  0  0  0  0  0  0
   -4.1377   -0.0850    1.9313 H   0  0  0  0  0  0  0  0  0  0  0  0
   -4.0404    0.1041    0.1607 H   0  0  0  0  0  0  0  0  0  0  0  0
   -6.9952   -1.1010    1.9602 H   0  0  0  0  0  0  0  0  0  0  0  0
   -9.1780   -1.2489    0.8298 H   0  0  0  0  0  0  0  0  0  0  0  0
   -9.6293   -3.0915   -0.7396 H   0  0  0  0  0  0  0  0  0  0  0  0
   -5.7136   -4.6358   -0.0528 H   0  0  0  0  0  0  0  0  0  0  0  0
   -2.8732   -3.5531   -0.0585 H   0  0  0  0  0  0  0  0  0  0  0  0
   -3.2060   -2.1845   -1.1524 H   0  0  0  0  0  0  0  0  0  0  0  0
   -0.7866   -2.3488   -0.8214 H   0  0  0  0  0  0  0  0  0  0  0  0
   -0.9945   -2.3553    0.9468 H   0  0  0  0  0  0  0  0  0  0  0  0
  1  2  1  0
  1 26  1  6
  1 27  1  0
  1 28  1  0
  2  3  1  6
  2  4  1  0
  2  7  1  0
  4  5  2  0
  4  6  1  0
  7 25  1  0
  7  8  1  0
  8  9  1  0
  8 29  1  1
  8 30  1  0
  9 10  1  0
  9 31  1  1
  9 32  1  0
 11 10  1  6
 10 24  1  0
 11 12  2  0
 11 13  2  0
 11 14  1  0
 14 23  2  0
 14 15  1  0
 15 16  2  0
 15 33  1  0
 16 17  1  0
 16 34  1  0
 17 18  2  0
 17 35  1  0
 18 19  1  0
 18 23  1  0
 19 20  1  6
 19 21  1  0
 19 22  1  0
 23 36  1  0
 24 25  1  0
 24 37  1  6
 24 38  1  0
 25 39  1  6
 25 40  1  0
M  END
$$$$
