ZINC000089904836
     RDKit          3D

 51 53  0  0  1  0  0  0  0  0999 V2000
   -0.1797   -4.7774   -9.7466 C   0  0  1  0  0  0  0  0  0  0  0  0
    1.2032   -4.4441   -9.6106 O   0  0  0  0  0  0  0  0  0  0  0  0
    1.6286   -4.0673   -8.3761 C   0  0  0  0  0  0  0  0  0  0  0  0
    0.7345   -4.0248   -7.3162 C   0  0  0  0  0  0  0  0  0  0  0  0
    1.1695   -3.6420   -6.0621 C   0  0  0  0  0  0  0  0  0  0  0  0
    2.4945   -3.3008   -5.8630 C   0  0  0  0  0  0  0  0  0  0  0  0
    2.9662   -2.8830   -4.4941 C   0  0  1  0  0  0  0  0  0  0  0  0
    4.0341   -1.7961   -4.6323 C   0  0  1  0  0  0  0  0  0  0  0  0
    1.8615   -2.3728   -3.7448 O   0  0  0  0  0  0  0  0  0  0  0  0
    3.5599   -4.0919   -3.7682 C   0  0  1  0  0  0  0  0  0  0  0  0
    2.7883   -4.8458   -3.6117 H   0  0  0  0  0  0  0  0  0  0  0  0
    4.7151   -4.6881   -4.5998 C   0  0  1  0  0  0  0  0  0  0  0  0
    5.7516   -5.0893   -3.5172 C   0  0  1  0  0  0  0  0  0  0  0  0
    5.5699   -3.9555   -2.4774 C   0  0  1  0  0  0  0  0  0  0  0  0
    4.1196   -3.6733   -2.4748 N   0  0  0  0  0  0  0  0  0  0  0  0
    3.2706   -2.9953   -1.2251 S   0  0  1  0  0  0  0  0  0  0  0  0
    1.9028   -3.3048   -1.4547 O   0  0  0  0  0  0  0  0  0  0  0  0
    3.9584   -3.3505   -0.0334 O   0  0  0  0  0  0  0  0  0  0  0  0
    3.4182   -1.2465   -1.3824 C   0  0  0  0  0  0  0  0  0  0  0  0
    4.5488   -0.6035   -0.9144 C   0  0  0  0  0  0  0  0  0  0  0  0
    4.6646    0.7685   -1.0378 C   0  0  0  0  0  0  0  0  0  0  0  0
    3.6500    1.4973   -1.6296 C   0  0  0  0  0  0  0  0  0  0  0  0
    3.7760    2.9930   -1.7637 C   0  0  1  0  0  0  0  0  0  0  0  0
    4.3907    3.3019   -2.9819 F   0  0  0  0  0  0  0  0  0  0  0  0
    2.5039    3.5737   -1.7228 F   0  0  0  0  0  0  0  0  0  0  0  0
    4.5504    3.4920   -0.7108 F   0  0  0  0  0  0  0  0  0  0  0  0
    2.5200    0.8541   -2.0988 C   0  0  0  0  0  0  0  0  0  0  0  0
    2.4059   -0.5183   -1.9789 C   0  0  0  0  0  0  0  0  0  0  0  0
    3.3876   -3.3428   -6.9177 C   0  0  0  0  0  0  0  0  0  0  0  0
    2.9588   -3.7301   -8.1725 C   0  0  0  0  0  0  0  0  0  0  0  0
   -0.4190   -5.6116   -9.0872 H   0  0  0  0  0  0  0  0  0  0  0  0
   -0.7894   -3.9149   -9.4774 H   0  0  0  0  0  0  0  0  0  0  0  0
   -0.3856   -5.0598  -10.7791 H   0  0  0  0  0  0  0  0  0  0  0  0
   -0.3007   -4.2906   -7.4713 H   0  0  0  0  0  0  0  0  0  0  0  0
    0.4739   -3.6087   -5.2367 H   0  0  0  0  0  0  0  0  0  0  0  0
    3.6111   -0.9348   -5.1494 H   0  0  0  0  0  0  0  0  0  0  0  0
    4.3752   -1.4939   -3.6422 H   0  0  0  0  0  0  0  0  0  0  0  0
    4.8767   -2.1853   -5.2038 H   0  0  0  0  0  0  0  0  0  0  0  0
    1.1449   -3.0095   -3.6177 H   0  0  0  0  0  0  0  0  0  0  0  0
    4.3787   -5.5638   -5.1549 H   0  0  0  0  0  0  0  0  0  0  0  0
    5.1314   -3.9395   -5.2738 H   0  0  0  0  0  0  0  0  0  0  0  0
    5.5085   -6.0594   -3.0839 H   0  0  0  0  0  0  0  0  0  0  0  0
    6.7626   -5.0874   -3.9246 H   0  0  0  0  0  0  0  0  0  0  0  0
    5.8917   -4.2901   -1.4912 H   0  0  0  0  0  0  0  0  0  0  0  0
    6.1293   -3.0702   -2.7798 H   0  0  0  0  0  0  0  0  0  0  0  0
    5.3415   -1.1729   -0.4520 H   0  0  0  0  0  0  0  0  0  0  0  0
    5.5476    1.2710   -0.6715 H   0  0  0  0  0  0  0  0  0  0  0  0
    1.7274    1.4234   -2.5615 H   0  0  0  0  0  0  0  0  0  0  0  0
    1.5230   -1.0209   -2.3455 H   0  0  0  0  0  0  0  0  0  0  0  0
    4.4222   -3.0762   -6.7595 H   0  0  0  0  0  0  0  0  0  0  0  0
    3.6568   -3.7627   -8.9960 H   0  0  0  0  0  0  0  0  0  0  0  0
  1  2  1  0
  1 31  1  1
  1 32  1  0
  1 33  1  0
  2  3  1  0
  3 30  2  0
  3  4  1  0
  4  5  2  0
  4 34  1  0
  5  6  1  0
  5 35  1  0
  6 29  2  0
  7  6  1  0
  7  8  1  0
  7  9  1  1
  7 10  1  0
  8 36  1  6
  8 37  1  0
  8 38  1  0
  9 39  1  0
 10 11  1  1
 10 15  1  0
 10 12  1  0
 12 13  1  0
 12 40  1  6
 12 41  1  0
 13 14  1  0
 13 42  1  1
 13 43  1  0
 14 15  1  0
 14 44  1  1
 14 45  1  0
 16 15  1  6
 16 17  2  0
 16 18  2  0
 16 19  1  0
 19 28  2  0
 19 20  1  0
 20 21  2  0
 20 46  1  0
 21 22  1  0
 21 47  1  0
 22 23  1  0
 22 27  2  0
 23 24  1  6
 23 25  1  0
 23 26  1  0
 27 28  1  0
 27 48  1  0
 28 49  1  0
 29 30  1  0
 29 50  1  0
 30 51  1  0
M  END
$$$$
