ZINC000012382586
     RDKit          3D

 49 50  0  0  0  0  0  0  0  0999 V2000
   -0.0187    1.5258    0.0104 C   0  0  1  0  0  0  0  0  0  0  0  0
    0.0021   -0.0041    0.0020 C   0  0  1  0  0  0  0  0  0  0  0  0
    0.7421   -0.5109    1.2415 C   0  0  1  0  0  0  0  0  0  0  0  0
   -1.3723   -0.5112    0.0124 N   0  0  0  0  0  0  0  0  0  0  0  0
   -1.6432   -1.7342   -0.4849 C   0  0  0  0  0  0  0  0  0  0  0  0
   -0.7491   -2.4150   -0.9410 O   0  0  0  0  0  0  0  0  0  0  0  0
   -3.0570   -2.2558   -0.4742 C   0  0  1  0  0  0  0  0  0  0  0  0
   -3.0875   -3.5961   -1.0648 N   0  0  0  0  0  0  0  0  0  0  0  0
   -2.7977   -4.7687   -0.2358 C   0  0  1  0  0  0  0  0  0  0  0  0
   -4.0740   -5.2150    0.4803 C   0  0  1  0  0  0  0  0  0  0  0  0
   -3.7759   -6.4212    1.3331 C   0  0  0  0  0  0  0  0  0  0  0  0
   -3.8999   -7.6912    0.8015 C   0  0  0  0  0  0  0  0  0  0  0  0
   -3.6265   -8.7976    1.5837 C   0  0  0  0  0  0  0  0  0  0  0  0
   -3.2286   -8.6341    2.8975 C   0  0  0  0  0  0  0  0  0  0  0  0
   -3.1038   -7.3640    3.4288 C   0  0  0  0  0  0  0  0  0  0  0  0
   -3.3731   -6.2575    2.6453 C   0  0  0  0  0  0  0  0  0  0  0  0
   -3.4495   -3.7857   -2.6696 S   0  0  1  0  0  0  0  0  0  0  0  0
   -3.9378   -5.1120   -2.8169 O   0  0  0  0  0  0  0  0  0  0  0  0
   -4.1932   -2.6367   -3.0516 O   0  0  0  0  0  0  0  0  0  0  0  0
   -1.9302   -3.7133   -3.5591 C   0  0  0  0  0  0  0  0  0  0  0  0
   -1.4538   -2.4984   -4.0155 C   0  0  0  0  0  0  0  0  0  0  0  0
   -0.2619   -2.4411   -4.7128 C   0  0  0  0  0  0  0  0  0  0  0  0
    0.4544   -3.5996   -4.9541 C   0  0  0  0  0  0  0  0  0  0  0  0
    2.0855   -3.5217   -5.9077 Br  0  0  0  0  0  0  0  0  0  0  0  0
   -0.0226   -4.8150   -4.4973 C   0  0  0  0  0  0  0  0  0  0  0  0
   -1.2120   -4.8706   -3.7955 C   0  0  0  0  0  0  0  0  0  0  0  0
    1.0039    1.9031    0.0027 H   0  0  0  0  0  0  0  0  0  0  0  0
   -0.5459    1.8868   -0.8726 H   0  0  0  0  0  0  0  0  0  0  0  0
   -0.5289    1.8773    0.9072 H   0  0  0  0  0  0  0  0  0  0  0  0
    0.5123   -0.3556   -0.8948 H   0  0  0  0  0  0  0  0  0  0  0  0
    0.2319   -0.1594    2.1383 H   0  0  0  0  0  0  0  0  0  0  0  0
    0.7568   -1.6008    1.2356 H   0  0  0  0  0  0  0  0  0  0  0  0
    1.7647   -0.1336    1.2338 H   0  0  0  0  0  0  0  0  0  0  0  0
   -2.0874    0.0333    0.3772 H   0  0  0  0  0  0  0  0  0  0  0  0
   -3.4190   -2.3030    0.5528 H   0  0  0  0  0  0  0  0  0  0  0  0
   -3.6948   -1.5886   -1.0540 H   0  0  0  0  0  0  0  0  0  0  0  0
   -2.4331   -5.5789   -0.8672 H   0  0  0  0  0  0  0  0  0  0  0  0
   -2.0374   -4.5130    0.5022 H   0  0  0  0  0  0  0  0  0  0  0  0
   -4.4386   -4.4047    1.1117 H   0  0  0  0  0  0  0  0  0  0  0  0
   -4.8342   -5.4707   -0.2578 H   0  0  0  0  0  0  0  0  0  0  0  0
   -4.2107   -7.8190   -0.2249 H   0  0  0  0  0  0  0  0  0  0  0  0
   -3.7240   -9.7899    1.1686 H   0  0  0  0  0  0  0  0  0  0  0  0
   -3.0157   -9.4985    3.5088 H   0  0  0  0  0  0  0  0  0  0  0  0
   -2.7934   -7.2362    4.4553 H   0  0  0  0  0  0  0  0  0  0  0  0
   -3.2756   -5.2652    3.0604 H   0  0  0  0  0  0  0  0  0  0  0  0
   -2.0133   -1.5940   -3.8273 H   0  0  0  0  0  0  0  0  0  0  0  0
    0.1100   -1.4920   -5.0696 H   0  0  0  0  0  0  0  0  0  0  0  0
    0.5363   -5.7197   -4.6855 H   0  0  0  0  0  0  0  0  0  0  0  0
   -1.5845   -5.8195   -3.4388 H   0  0  0  0  0  0  0  0  0  0  0  0
  1  2  1  0
  1 27  1  6
  1 28  1  0
  1 29  1  0
  2  3  1  0
  2  4  1  0
  2 30  1  6
  3 31  1  1
  3 32  1  0
  3 33  1  0
  4  5  1  0
  4 34  1  0
  5  6  2  0
  5  7  1  0
  7  8  1  0
  7 35  1  1
  7 36  1  0
  8  9  1  0
 17  8  1  1
  9 10  1  0
  9 37  1  6
  9 38  1  0
 10 11  1  0
 10 39  1  1
 10 40  1  0
 11 16  2  0
 11 12  1  0
 12 13  2  0
 12 41  1  0
 13 14  1  0
 13 42  1  0
 14 15  2  0
 14 43  1  0
 15 16  1  0
 15 44  1  0
 16 45  1  0
 17 18  2  0
 17 19  2  0
 17 20  1  0
 20 26  2  0
 20 21  1  0
 21 22  2  0
 21 46  1  0
 22 23  1  0
 22 47  1  0
 23 24  1  0
 23 25  2  0
 25 26  1  0
 25 48  1  0
 26 49  1  0
M  END
$$$$
