ZINC000408781564
     RDKit          3D

 55 56  0  0  0  0  0  0  0  0999 V2000
   -0.0173    1.4248    0.0099 C   0  0  1  0  0  0  0  0  0  0  0  0
    0.0021   -0.0041    0.0020 O   0  0  0  0  0  0  0  0  0  0  0  0
    0.6518   -0.5703   -1.1379 C   0  0  1  0  0  0  0  0  0  0  0  0
    0.6131   -2.0967   -1.0411 C   0  0  1  0  0  0  0  0  0  0  0  0
   -0.7759   -2.5559   -1.1188 N   0  0  0  0  0  0  0  0  0  0  0  0
   -1.0549   -3.8729   -1.0544 C   0  0  0  0  0  0  0  0  0  0  0  0
   -0.1561   -4.6779   -0.9320 O   0  0  0  0  0  0  0  0  0  0  0  0
   -2.4837   -4.3452   -1.1344 C   0  0  1  0  0  0  0  0  0  0  0  0
   -2.5208   -5.8068   -1.0417 N   0  0  0  0  0  0  0  0  0  0  0  0
   -2.5267   -6.4576    0.2708 C   0  0  1  0  0  0  0  0  0  0  0  0
   -3.9403   -6.5333    0.7876 C   0  0  0  0  0  0  0  0  0  0  0  0
   -4.4541   -5.5001    1.5488 C   0  0  0  0  0  0  0  0  0  0  0  0
   -5.7508   -5.5695    2.0229 C   0  0  0  0  0  0  0  0  0  0  0  0
   -6.5338   -6.6718    1.7354 C   0  0  0  0  0  0  0  0  0  0  0  0
   -6.0202   -7.7046    0.9735 C   0  0  0  0  0  0  0  0  0  0  0  0
   -4.7250   -7.6333    0.4958 C   0  0  0  0  0  0  0  0  0  0  0  0
   -2.5560   -6.7233   -2.4205 S   0  0  1  0  0  0  0  0  0  0  0  0
   -3.1300   -7.9717   -2.0580 O   0  0  0  0  0  0  0  0  0  0  0  0
   -3.0876   -5.8909   -3.4421 O   0  0  0  0  0  0  0  0  0  0  0  0
   -0.8847   -7.0555   -2.8688 C   0  0  0  0  0  0  0  0  0  0  0  0
   -0.2086   -6.1854   -3.7030 C   0  0  0  0  0  0  0  0  0  0  0  0
    1.1030   -6.4419   -4.0581 C   0  0  0  0  0  0  0  0  0  0  0  0
    1.7423   -7.5728   -3.5772 C   0  0  0  0  0  0  0  0  0  0  0  0
    3.0323   -7.8263   -3.9251 O   0  0  0  0  0  0  0  0  0  0  0  0
    3.6681   -6.8835   -4.7905 C   0  0  1  0  0  0  0  0  0  0  0  0
    1.0615   -8.4489   -2.7367 C   0  0  0  0  0  0  0  0  0  0  0  0
    1.6849   -9.5602   -2.2615 O   0  0  0  0  0  0  0  0  0  0  0  0
    0.9247  -10.4139   -1.4040 C   0  0  1  0  0  0  0  0  0  0  0  0
   -0.2506   -8.1833   -2.3806 C   0  0  0  0  0  0  0  0  0  0  0  0
    1.0053    1.8021    0.0021 H   0  0  0  0  0  0  0  0  0  0  0  0
   -0.5445    1.7859   -0.8732 H   0  0  0  0  0  0  0  0  0  0  0  0
   -0.5275    1.7763    0.9067 H   0  0  0  0  0  0  0  0  0  0  0  0
    0.1385   -0.2506   -2.0447 H   0  0  0  0  0  0  0  0  0  0  0  0
    1.6883   -0.2344   -1.1694 H   0  0  0  0  0  0  0  0  0  0  0  0
    1.1847   -2.5275   -1.8631 H   0  0  0  0  0  0  0  0  0  0  0  0
    1.0473   -2.4117   -0.0922 H   0  0  0  0  0  0  0  0  0  0  0  0
   -1.4948   -1.9121   -1.2167 H   0  0  0  0  0  0  0  0  0  0  0  0
   -3.0554   -3.9144   -0.3124 H   0  0  0  0  0  0  0  0  0  0  0  0
   -2.9180   -4.0302   -2.0832 H   0  0  0  0  0  0  0  0  0  0  0  0
   -2.1191   -7.4644    0.1790 H   0  0  0  0  0  0  0  0  0  0  0  0
   -1.9163   -5.8804    0.9653 H   0  0  0  0  0  0  0  0  0  0  0  0
   -3.8424   -4.6388    1.7734 H   0  0  0  0  0  0  0  0  0  0  0  0
   -6.1520   -4.7626    2.6182 H   0  0  0  0  0  0  0  0  0  0  0  0
   -7.5466   -6.7263    2.1064 H   0  0  0  0  0  0  0  0  0  0  0  0
   -6.6318   -8.5660    0.7492 H   0  0  0  0  0  0  0  0  0  0  0  0
   -4.3238   -8.4402   -0.0995 H   0  0  0  0  0  0  0  0  0  0  0  0
   -0.7059   -5.3033   -4.0787 H   0  0  0  0  0  0  0  0  0  0  0  0
    1.6289   -5.7607   -4.7107 H   0  0  0  0  0  0  0  0  0  0  0  0
    3.1178   -6.8237   -5.7295 H   0  0  0  0  0  0  0  0  0  0  0  0
    3.6805   -5.9034   -4.3136 H   0  0  0  0  0  0  0  0  0  0  0  0
    4.6908   -7.2042   -4.9885 H   0  0  0  0  0  0  0  0  0  0  0  0
    1.5387  -11.2607   -1.0972 H   0  0  0  0  0  0  0  0  0  0  0  0
    0.6092   -9.8557   -0.5226 H   0  0  0  0  0  0  0  0  0  0  0  0
    0.0465  -10.7766   -1.9381 H   0  0  0  0  0  0  0  0  0  0  0  0
   -0.7811   -8.8615   -1.7286 H   0  0  0  0  0  0  0  0  0  0  0  0
  1  2  1  0
  1 30  1  6
  1 31  1  0
  1 32  1  0
  2  3  1  0
  3  4  1  0
  3 33  1  6
  3 34  1  0
  4  5  1  0
  4 35  1  6
  4 36  1  0
  5  6  1  0
  5 37  1  0
  6  7  2  0
  6  8  1  0
  8  9  1  0
  8 38  1  1
  8 39  1  0
  9 10  1  0
 17  9  1  1
 10 11  1  0
 10 40  1  6
 10 41  1  0
 11 16  2  0
 11 12  1  0
 12 13  2  0
 12 42  1  0
 13 14  1  0
 13 43  1  0
 14 15  2  0
 14 44  1  0
 15 16  1  0
 15 45  1  0
 16 46  1  0
 17 18  2  0
 17 19  2  0
 17 20  1  0
 20 29  2  0
 20 21  1  0
 21 22  2  0
 21 47  1  0
 22 23  1  0
 22 48  1  0
 23 24  1  0
 23 26  2  0
 24 25  1  0
 25 49  1  6
 25 50  1  0
 25 51  1  0
 26 27  1  0
 26 29  1  0
 27 28  1  0
 28 52  1  1
 28 53  1  0
 28 54  1  0
 29 55  1  0
M  END
$$$$
