ZINC000009365371
     RDKit          3D

 34 35  0  0  1  0  0  0  0  0999 V2000
   -0.0162    1.3436    0.0094 N   0  0  0  0  0  0  0  0  0  0  0  0
    0.0021   -0.0041    0.0020 C   0  0  0  0  0  0  0  0  0  0  0  0
    1.0605   -0.5961   -0.0113 O   0  0  0  0  0  0  0  0  0  0  0  0
   -1.2926   -0.7753    0.0102 C   0  0  2  0  0  0  0  0  0  0  0  0
   -1.8872   -0.5105   -0.8641 H   0  0  0  0  0  0  0  0  0  0  0  0
   -2.0832   -0.4599    1.2975 C   0  0  1  0  0  0  0  0  0  0  0  0
   -2.6970   -1.8343    1.6738 C   0  0  1  0  0  0  0  0  0  0  0  0
   -1.5701   -2.8064    1.2441 C   0  0  1  0  0  0  0  0  0  0  0  0
   -1.0147   -2.2190    0.0074 N   0  0  0  0  0  0  0  0  0  0  0  0
   -0.2123   -3.0492   -1.1796 S   0  0  1  0  0  0  0  0  0  0  0  0
    0.5976   -2.0982   -1.8571 O   0  0  0  0  0  0  0  0  0  0  0  0
    0.3110   -4.2197   -0.5670 O   0  0  0  0  0  0  0  0  0  0  0  0
   -1.4191   -3.5932   -2.3425 C   0  0  0  0  0  0  0  0  0  0  0  0
   -2.0339   -4.8203   -2.1777 C   0  0  0  0  0  0  0  0  0  0  0  0
   -2.9807   -5.2472   -3.0900 C   0  0  0  0  0  0  0  0  0  0  0  0
   -3.3130   -4.4467   -4.1669 C   0  0  0  0  0  0  0  0  0  0  0  0
   -4.3448   -4.9122   -5.1617 C   0  0  1  0  0  0  0  0  0  0  0  0
   -5.6128   -4.4856   -4.7526 F   0  0  0  0  0  0  0  0  0  0  0  0
   -4.0553   -4.3741   -6.4202 F   0  0  0  0  0  0  0  0  0  0  0  0
   -4.3242   -6.3091   -5.2358 F   0  0  0  0  0  0  0  0  0  0  0  0
   -2.6992   -3.2190   -4.3310 C   0  0  0  0  0  0  0  0  0  0  0  0
   -1.7552   -2.7905   -3.4165 C   0  0  0  0  0  0  0  0  0  0  0  0
    0.8172    1.8399    0.0041 H   0  0  0  0  0  0  0  0  0  0  0  0
   -0.8627    1.8171    0.0160 H   0  0  0  0  0  0  0  0  0  0  0  0
   -1.4154   -0.1076    2.0837 H   0  0  0  0  0  0  0  0  0  0  0  0
   -2.8669    0.2713    1.0995 H   0  0  0  0  0  0  0  0  0  0  0  0
   -2.8814   -1.8995    2.7461 H   0  0  0  0  0  0  0  0  0  0  0  0
   -3.6108   -2.0217    1.1098 H   0  0  0  0  0  0  0  0  0  0  0  0
   -0.8030   -2.8630    2.0164 H   0  0  0  0  0  0  0  0  0  0  0  0
   -1.9795   -3.7961    1.0417 H   0  0  0  0  0  0  0  0  0  0  0  0
   -1.7742   -5.4457   -1.3363 H   0  0  0  0  0  0  0  0  0  0  0  0
   -3.4605   -6.2062   -2.9616 H   0  0  0  0  0  0  0  0  0  0  0  0
   -2.9591   -2.5935   -5.1721 H   0  0  0  0  0  0  0  0  0  0  0  0
   -1.2757   -1.8313   -3.5447 H   0  0  0  0  0  0  0  0  0  0  0  0
  1  2  1  0
  1 23  1  0
  1 24  1  0
  2  3  2  0
  2  4  1  0
  4  5  1  6
  4  9  1  0
  4  6  1  0
  6  7  1  0
  6 25  1  1
  6 26  1  0
  7  8  1  0
  7 27  1  1
  7 28  1  0
  8  9  1  0
  8 29  1  1
  8 30  1  0
 10  9  1  1
 10 11  2  0
 10 12  2  0
 10 13  1  0
 13 22  2  0
 13 14  1  0
 14 15  2  0
 14 31  1  0
 15 16  1  0
 15 32  1  0
 16 17  1  0
 16 21  2  0
 17 18  1  1
 17 19  1  0
 17 20  1  0
 21 22  1  0
 21 33  1  0
 22 34  1  0
M  END
$$$$
