ZINC000222818440
     RDKit          3D

 57 58  0  0  0  0  0  0  0  0999 V2000
    0.0069    1.4986   -0.0141 C   0  0  1  0  0  0  0  0  0  0  0  0
    0.0332   -0.0312   -0.0184 C   0  0  1  0  0  0  0  0  0  0  0  0
    0.7368   -0.5109    1.1737 N   0  0  0  0  0  0  0  0  0  0  0  0
    0.0133   -0.6668    2.4381 C   0  0  1  0  0  0  0  0  0  0  0  0
   -0.6692   -2.0358    2.4696 C   0  0  1  0  0  0  0  0  0  0  0  0
    2.3498   -0.8768    1.0921 S   0  0  1  0  0  0  0  0  0  0  0  0
    2.6076   -1.7917    2.1484 O   0  0  0  0  0  0  0  0  0  0  0  0
    2.6272   -1.1656   -0.2713 O   0  0  0  0  0  0  0  0  0  0  0  0
    3.2386    0.5943    1.4800 C   0  0  0  0  0  0  0  0  0  0  0  0
    3.5911    1.4733    0.4729 C   0  0  0  0  0  0  0  0  0  0  0  0
    4.2877    2.6278    0.7745 C   0  0  0  0  0  0  0  0  0  0  0  0
    4.6333    2.9045    2.0890 C   0  0  0  0  0  0  0  0  0  0  0  0
    5.3181    4.0396    2.3883 O   0  0  0  0  0  0  0  0  0  0  0  0
    5.6496    4.9034    1.2993 C   0  0  1  0  0  0  0  0  0  0  0  0
    6.4017    6.1013    1.8193 C   0  0  0  0  0  0  0  0  0  0  0  0
    6.6312    6.2051    3.0058 O   0  0  0  0  0  0  0  0  0  0  0  0
    6.8193    7.0573    0.9660 N   0  0  0  0  0  0  0  0  0  0  0  0
    7.4316    8.2153    1.4580 C   0  0  0  0  0  0  0  0  0  0  0  0
    7.2182    9.4356    0.8303 C   0  0  0  0  0  0  0  0  0  0  0  0
    7.8240   10.5768    1.3184 C   0  0  0  0  0  0  0  0  0  0  0  0
    8.6426   10.5051    2.4305 C   0  0  0  0  0  0  0  0  0  0  0  0
    9.3024   11.7523    2.9601 C   0  0  1  0  0  0  0  0  0  0  0  0
    8.4014   12.4042    3.9770 C   0  0  0  0  0  0  0  0  0  0  0  0
    8.7872   13.5417    4.5883 N   0  0  0  0  0  0  0  0  0  0  0  0
    7.3290   11.9053    4.2453 O   0  0  0  0  0  0  0  0  0  0  0  0
    8.8568    9.2917    3.0581 C   0  0  0  0  0  0  0  0  0  0  0  0
    8.2493    8.1478    2.5784 C   0  0  0  0  0  0  0  0  0  0  0  0
    4.2783    2.0206    3.0980 C   0  0  0  0  0  0  0  0  0  0  0  0
    4.6518    2.3183    4.5273 C   0  0  1  0  0  0  0  0  0  0  0  0
    3.5774    0.8705    2.7920 C   0  0  0  0  0  0  0  0  0  0  0  0
    1.0282    1.8795   -0.0170 H   0  0  0  0  0  0  0  0  0  0  0  0
   -0.5165    1.8554   -0.9011 H   0  0  0  0  0  0  0  0  0  0  0  0
   -0.5096    1.8505    0.8789 H   0  0  0  0  0  0  0  0  0  0  0  0
   -0.9880   -0.4122   -0.0155 H   0  0  0  0  0  0  0  0  0  0  0  0
    0.5498   -0.3832   -0.9114 H   0  0  0  0  0  0  0  0  0  0  0  0
    0.7142   -0.5910    3.2694 H   0  0  0  0  0  0  0  0  0  0  0  0
   -0.7395    0.1166    2.5249 H   0  0  0  0  0  0  0  0  0  0  0  0
    0.0837   -2.8192    2.3827 H   0  0  0  0  0  0  0  0  0  0  0  0
   -1.2074   -2.1518    3.4103 H   0  0  0  0  0  0  0  0  0  0  0  0
   -1.3700   -2.1116    1.6382 H   0  0  0  0  0  0  0  0  0  0  0  0
    3.3221    1.2573   -0.5505 H   0  0  0  0  0  0  0  0  0  0  0  0
    4.5631    3.3140   -0.0127 H   0  0  0  0  0  0  0  0  0  0  0  0
    6.2729    4.3650    0.5853 H   0  0  0  0  0  0  0  0  0  0  0  0
    4.7354    5.2342    0.8066 H   0  0  0  0  0  0  0  0  0  0  0  0
    6.6955    6.9426    0.0108 H   0  0  0  0  0  0  0  0  0  0  0  0
    6.5794    9.4921   -0.0387 H   0  0  0  0  0  0  0  0  0  0  0  0
    7.6584   11.5261    0.8307 H   0  0  0  0  0  0  0  0  0  0  0  0
   10.2505   11.4903    3.4297 H   0  0  0  0  0  0  0  0  0  0  0  0
    9.4833   12.4447    2.1379 H   0  0  0  0  0  0  0  0  0  0  0  0
    9.6449   13.9407    4.3737 H   0  0  0  0  0  0  0  0  0  0  0  0
    8.2072   13.9613    5.2428 H   0  0  0  0  0  0  0  0  0  0  0  0
    9.4967    9.2390    3.9265 H   0  0  0  0  0  0  0  0  0  0  0  0
    8.4170    7.2003    3.0689 H   0  0  0  0  0  0  0  0  0  0  0  0
    3.8542    2.8920    4.9993 H   0  0  0  0  0  0  0  0  0  0  0  0
    4.7952    1.3827    5.0678 H   0  0  0  0  0  0  0  0  0  0  0  0
    5.5761    2.8956    4.5486 H   0  0  0  0  0  0  0  0  0  0  0  0
    3.3006    0.1823    3.5770 H   0  0  0  0  0  0  0  0  0  0  0  0
  1  2  1  0
  1 31  1  1
  1 32  1  0
  1 33  1  0
  2  3  1  0
  2 34  1  6
  2 35  1  0
  3  4  1  0
  6  3  1  6
  4  5  1  0
  4 36  1  1
  4 37  1  0
  5 38  1  6
  5 39  1  0
  5 40  1  0
  6  7  2  0
  6  8  2  0
  6  9  1  0
  9 30  2  0
  9 10  1  0
 10 11  2  0
 10 41  1  0
 11 12  1  0
 11 42  1  0
 12 13  1  0
 12 28  2  0
 13 14  1  0
 14 15  1  0
 14 43  1  6
 14 44  1  0
 15 16  2  0
 15 17  1  0
 17 18  1  0
 17 45  1  0
 18 27  2  0
 18 19  1  0
 19 20  2  0
 19 46  1  0
 20 21  1  0
 20 47  1  0
 21 22  1  0
 21 26  2  0
 22 23  1  0
 22 48  1  1
 22 49  1  0
 23 24  1  0
 23 25  2  0
 24 50  1  0
 24 51  1  0
 26 27  1  0
 26 52  1  0
 27 53  1  0
 28 29  1  0
 28 30  1  0
 29 54  1  1
 29 55  1  0
 29 56  1  0
 30 57  1  0
M  END
$$$$
