ZINC000024864871
     RDKit          3D

 52 54  0  0  1  0  0  0  0  0999 V2000
    0.9100   -0.2588   -1.2034 C   0  0  1  0  0  0  0  0  0  0  0  0
    0.0069    0.0086    0.0023 C   0  0  1  0  0  0  0  0  0  0  0  0
   -0.2731    1.0618    0.0201 H   0  0  0  0  0  0  0  0  0  0  0  0
   -1.2345   -0.8395   -0.1020 C   0  0  0  0  0  0  0  0  0  0  0  0
   -1.4101   -1.7555    0.6733 O   0  0  0  0  0  0  0  0  0  0  0  0
   -2.1495   -0.5800   -1.0569 N   0  0  0  0  0  0  0  0  0  0  0  0
   -3.3486   -1.3005   -1.0911 C   0  0  0  0  0  0  0  0  0  0  0  0
   -4.5237   -0.6772   -1.4899 C   0  0  0  0  0  0  0  0  0  0  0  0
   -5.7056   -1.3911   -1.5225 C   0  0  0  0  0  0  0  0  0  0  0  0
   -5.7197   -2.7249   -1.1582 C   0  0  0  0  0  0  0  0  0  0  0  0
   -4.5513   -3.3484   -0.7602 C   0  0  0  0  0  0  0  0  0  0  0  0
   -3.3649   -2.6418   -0.7318 C   0  0  0  0  0  0  0  0  0  0  0  0
    0.7271   -0.3276    1.2377 N   0  0  0  0  0  0  0  0  0  0  0  0
    1.1994   -1.7183    1.2099 C   0  0  1  0  0  0  0  0  0  0  0  0
    2.0954   -1.9744    2.4264 C   0  0  1  0  0  0  0  0  0  0  0  0
    1.3565   -1.5927    3.6395 N   0  0  0  0  0  0  0  0  0  0  0  0
    1.2277   -2.6353    4.9196 S   0  0  1  0  0  0  0  0  0  0  0  0
    0.0664   -2.2451    5.6396 O   0  0  0  0  0  0  0  0  0  0  0  0
    1.4131   -3.9421    4.3930 O   0  0  0  0  0  0  0  0  0  0  0  0
    2.5988   -2.3281    5.9826 C   0  0  0  0  0  0  0  0  0  0  0  0
    3.7836   -3.0163    5.7990 C   0  0  0  0  0  0  0  0  0  0  0  0
    4.8593   -2.7752    6.6330 C   0  0  0  0  0  0  0  0  0  0  0  0
    4.7505   -1.8456    7.6503 C   0  0  0  0  0  0  0  0  0  0  0  0
    5.9231   -1.5832    8.5599 C   0  0  1  0  0  0  0  0  0  0  0  0
    6.7088   -0.5575    8.0235 F   0  0  0  0  0  0  0  0  0  0  0  0
    5.4574   -1.2021    9.8229 F   0  0  0  0  0  0  0  0  0  0  0  0
    6.6914   -2.7464    8.6775 F   0  0  0  0  0  0  0  0  0  0  0  0
    3.5662   -1.1565    7.8331 C   0  0  0  0  0  0  0  0  0  0  0  0
    2.4917   -1.3948    6.9967 C   0  0  0  0  0  0  0  0  0  0  0  0
    0.7356   -0.2602    3.6857 C   0  0  1  0  0  0  0  0  0  0  0  0
   -0.1069   -0.0716    2.4196 C   0  0  1  0  0  0  0  0  0  0  0  0
    1.1900   -1.3121   -1.2212 H   0  0  0  0  0  0  0  0  0  0  0  0
    0.3756   -0.0093   -2.1201 H   0  0  0  0  0  0  0  0  0  0  0  0
    1.8079    0.3546   -1.1279 H   0  0  0  0  0  0  0  0  0  0  0  0
   -1.9769    0.1061   -1.7205 H   0  0  0  0  0  0  0  0  0  0  0  0
   -4.5135    0.3648   -1.7739 H   0  0  0  0  0  0  0  0  0  0  0  0
   -6.6199   -0.9069   -1.8326 H   0  0  0  0  0  0  0  0  0  0  0  0
   -6.6452   -3.2809   -1.1843 H   0  0  0  0  0  0  0  0  0  0  0  0
   -4.5657   -4.3901   -0.4756 H   0  0  0  0  0  0  0  0  0  0  0  0
   -2.4527   -3.1293   -0.4208 H   0  0  0  0  0  0  0  0  0  0  0  0
    0.3443   -2.3935    1.2394 H   0  0  0  0  0  0  0  0  0  0  0  0
    1.7684   -1.8910    0.2963 H   0  0  0  0  0  0  0  0  0  0  0  0
    2.3554   -3.0319    2.4735 H   0  0  0  0  0  0  0  0  0  0  0  0
    3.0021   -1.3748    2.3460 H   0  0  0  0  0  0  0  0  0  0  0  0
    3.8686   -3.7425    5.0042 H   0  0  0  0  0  0  0  0  0  0  0  0
    5.7847   -3.3134    6.4900 H   0  0  0  0  0  0  0  0  0  0  0  0
    3.4813   -0.4299    8.6277 H   0  0  0  0  0  0  0  0  0  0  0  0
    1.5664   -0.8563    7.1395 H   0  0  0  0  0  0  0  0  0  0  0  0
    0.0965   -0.1844    4.5654 H   0  0  0  0  0  0  0  0  0  0  0  0
    1.5116    0.5041    3.7264 H   0  0  0  0  0  0  0  0  0  0  0  0
   -0.4853    0.9499    2.3834 H   0  0  0  0  0  0  0  0  0  0  0  0
   -0.9438   -0.7698    2.4323 H   0  0  0  0  0  0  0  0  0  0  0  0
  1  2  1  0
  1 32  1  6
  1 33  1  0
  1 34  1  0
  2  3  1  1
  2  4  1  0
  2 13  1  0
  4  5  2  0
  4  6  1  0
  6  7  1  0
  6 35  1  0
  7 12  2  0
  7  8  1  0
  8  9  2  0
  8 36  1  0
  9 10  1  0
  9 37  1  0
 10 11  2  0
 10 38  1  0
 11 12  1  0
 11 39  1  0
 12 40  1  0
 13 31  1  0
 13 14  1  0
 14 15  1  0
 14 41  1  1
 14 42  1  0
 15 16  1  0
 15 43  1  1
 15 44  1  0
 17 16  1  6
 16 30  1  0
 17 18  2  0
 17 19  2  0
 17 20  1  0
 20 29  2  0
 20 21  1  0
 21 22  2  0
 21 45  1  0
 22 23  1  0
 22 46  1  0
 23 24  1  0
 23 28  2  0
 24 25  1  6
 24 26  1  0
 24 27  1  0
 28 29  1  0
 28 47  1  0
 29 48  1  0
 30 31  1  0
 30 49  1  1
 30 50  1  0
 31 51  1  6
 31 52  1  0
M  END
$$$$
