ZINC000014182802
     RDKit          3D

 43 44  0  0  0  0  0  0  0  0999 V2000
   -0.0225    1.8097    0.0120 C   0  0  1  0  0  0  0  0  0  0  0  0
    0.0021   -0.0041    0.0020 S   0  0  1  0  0  0  0  0  0  0  0  0
    0.8448   -0.4970    1.0346 O   0  0  0  0  0  0  0  0  0  0  0  0
   -1.3093   -0.5195   -0.1821 O   0  0  0  0  0  0  0  0  0  0  0  0
    0.7961   -0.3989   -1.3965 N   0  0  0  0  0  0  0  0  0  0  0  0
    0.0550   -0.5829   -2.6518 C   0  0  1  0  0  0  0  0  0  0  0  0
    0.6756    0.3146   -3.7270 C   0  0  1  0  0  0  0  0  0  0  0  0
    2.1732    0.0171   -3.8319 C   0  0  1  0  0  0  0  0  0  0  0  0
    2.7808    0.8741   -4.9124 C   0  0  0  0  0  0  0  0  0  0  0  0
    2.0848    1.6465   -5.5369 O   0  0  0  0  0  0  0  0  0  0  0  0
    4.0975    0.7823   -5.1847 N   0  0  0  0  0  0  0  0  0  0  0  0
    4.6882    1.6154   -6.2351 C   0  0  1  0  0  0  0  0  0  0  0  0
    6.1629    1.3227   -6.3386 C   0  0  0  0  0  0  0  0  0  0  0  0
    7.0651    2.0403   -5.5758 C   0  0  0  0  0  0  0  0  0  0  0  0
    8.4178    1.7719   -5.6708 C   0  0  0  0  0  0  0  0  0  0  0  0
    8.8682    0.7855   -6.5281 C   0  0  0  0  0  0  0  0  0  0  0  0
   10.3430    0.4932   -6.6320 C   0  0  1  0  0  0  0  0  0  0  0  0
   10.6910   -0.4875   -5.6969 F   0  0  0  0  0  0  0  0  0  0  0  0
   10.6378    0.0345   -7.9204 F   0  0  0  0  0  0  0  0  0  0  0  0
   11.0691    1.6611   -6.3752 F   0  0  0  0  0  0  0  0  0  0  0  0
    7.9658    0.0669   -7.2899 C   0  0  0  0  0  0  0  0  0  0  0  0
    6.6128    0.3328   -7.1921 C   0  0  0  0  0  0  0  0  0  0  0  0
    2.8511    0.3255   -2.4949 C   0  0  1  0  0  0  0  0  0  0  0  0
    2.2558   -0.5658   -1.4070 C   0  0  1  0  0  0  0  0  0  0  0  0
    1.0001    2.1870    0.0043 H   0  0  0  0  0  0  0  0  0  0  0  0
   -0.5497    2.1708   -0.8711 H   0  0  0  0  0  0  0  0  0  0  0  0
   -0.5327    2.1613    0.9088 H   0  0  0  0  0  0  0  0  0  0  0  0
    0.1188   -1.6252   -2.9643 H   0  0  0  0  0  0  0  0  0  0  0  0
   -0.9890   -0.3070   -2.5035 H   0  0  0  0  0  0  0  0  0  0  0  0
    0.1974    0.1169   -4.6863 H   0  0  0  0  0  0  0  0  0  0  0  0
    0.5305    1.3604   -3.4562 H   0  0  0  0  0  0  0  0  0  0  0  0
    2.3181   -1.0347   -4.0782 H   0  0  0  0  0  0  0  0  0  0  0  0
    4.6542    0.1645   -4.6852 H   0  0  0  0  0  0  0  0  0  0  0  0
    4.2063    1.3950   -7.1876 H   0  0  0  0  0  0  0  0  0  0  0  0
    4.5429    2.6673   -5.9892 H   0  0  0  0  0  0  0  0  0  0  0  0
    6.7133    2.8110   -4.9060 H   0  0  0  0  0  0  0  0  0  0  0  0
    9.1228    2.3331   -5.0754 H   0  0  0  0  0  0  0  0  0  0  0  0
    8.3177   -0.7040   -7.9594 H   0  0  0  0  0  0  0  0  0  0  0  0
    5.9078   -0.2286   -7.7872 H   0  0  0  0  0  0  0  0  0  0  0  0
    3.9213    0.1358   -2.5774 H   0  0  0  0  0  0  0  0  0  0  0  0
    2.6855    1.3712   -2.2357 H   0  0  0  0  0  0  0  0  0  0  0  0
    2.6644   -0.2814   -0.4374 H   0  0  0  0  0  0  0  0  0  0  0  0
    2.4970   -1.6081   -1.6160 H   0  0  0  0  0  0  0  0  0  0  0  0
  1  2  1  0
  1 25  1  6
  1 26  1  0
  1 27  1  0
  2  3  2  0
  2  4  2  0
  2  5  1  6
  5 24  1  0
  5  6  1  0
  6  7  1  0
  6 28  1  6
  6 29  1  0
  7  8  1  0
  7 30  1  6
  7 31  1  0
  8  9  1  0
  8 23  1  0
  8 32  1  6
  9 10  2  0
  9 11  1  0
 11 12  1  0
 11 33  1  0
 12 13  1  0
 12 34  1  6
 12 35  1  0
 13 22  2  0
 13 14  1  0
 14 15  2  0
 14 36  1  0
 15 16  1  0
 15 37  1  0
 16 17  1  0
 16 21  2  0
 17 18  1  1
 17 19  1  0
 17 20  1  0
 21 22  1  0
 21 38  1  0
 22 39  1  0
 23 24  1  0
 23 40  1  6
 23 41  1  0
 24 42  1  1
 24 43  1  0
M  END
$$$$
