ZINC000005851430
     RDKit          3D

 59 60  0  0  0  0  0  0  0  0999 V2000
    0.0292    1.5413    0.0235 C   0  0  1  0  0  0  0  0  0  0  0  0
    0.0523    0.0115    0.0193 C   0  0  1  0  0  0  0  0  0  0  0  0
    0.7297   -0.4634   -1.1898 N   0  0  0  0  0  0  0  0  0  0  0  0
    2.1898   -0.5812   -1.2130 C   0  0  1  0  0  0  0  0  0  0  0  0
    2.6017   -1.9337   -0.6281 C   0  0  1  0  0  0  0  0  0  0  0  0
   -0.1549   -0.8669   -2.5302 S   0  0  1  0  0  0  0  0  0  0  0  0
    0.6449   -1.7691   -3.2822 O   0  0  0  0  0  0  0  0  0  0  0  0
   -1.4605   -1.1853   -2.0684 O   0  0  0  0  0  0  0  0  0  0  0  0
   -0.3145    0.5902   -3.5079 C   0  0  0  0  0  0  0  0  0  0  0  0
   -1.3832    1.4432   -3.3047 C   0  0  0  0  0  0  0  0  0  0  0  0
   -1.5138    2.5883   -4.0689 C   0  0  0  0  0  0  0  0  0  0  0  0
   -0.5725    2.8835   -5.0412 C   0  0  0  0  0  0  0  0  0  0  0  0
   -0.6993    4.0093   -5.7931 O   0  0  0  0  0  0  0  0  0  0  0  0
   -1.8286    4.8435   -5.5269 C   0  0  1  0  0  0  0  0  0  0  0  0
    0.5050    2.0242   -5.2465 C   0  0  0  0  0  0  0  0  0  0  0  0
    1.4606    2.3179   -6.2283 N   0  0  0  0  0  0  0  0  0  0  0  0
    2.1904    1.3262   -6.7764 C   0  0  0  0  0  0  0  0  0  0  0  0
    1.9520    0.1708   -6.4946 O   0  0  0  0  0  0  0  0  0  0  0  0
    3.3025    1.6529   -7.7395 C   0  0  1  0  0  0  0  0  0  0  0  0
    3.9661    0.3573   -8.2106 C   0  0  1  0  0  0  0  0  0  0  0  0
    5.0953    0.6889   -9.1884 C   0  0  1  0  0  0  0  0  0  0  0  0
    6.1932    1.4630   -8.4560 C   0  0  1  0  0  0  0  0  0  0  0  0
    7.3223    1.7946   -9.4337 C   0  0  1  0  0  0  0  0  0  0  0  0
    7.9038    0.4977  -10.0002 C   0  0  1  0  0  0  0  0  0  0  0  0
    6.8059   -0.2763  -10.7326 C   0  0  1  0  0  0  0  0  0  0  0  0
    5.6767   -0.6080   -9.7548 C   0  0  1  0  0  0  0  0  0  0  0  0
    0.6323    0.8806   -4.4724 C   0  0  0  0  0  0  0  0  0  0  0  0
    1.0511    1.9201    0.0071 H   0  0  0  0  0  0  0  0  0  0  0  0
   -0.5051    1.8990   -0.8566 H   0  0  0  0  0  0  0  0  0  0  0  0
   -0.4748    1.8946    0.9231 H   0  0  0  0  0  0  0  0  0  0  0  0
    0.5866   -0.3463    0.8994 H   0  0  0  0  0  0  0  0  0  0  0  0
   -0.9696   -0.3674    0.0358 H   0  0  0  0  0  0  0  0  0  0  0  0
    2.5440   -0.5069   -2.2411 H   0  0  0  0  0  0  0  0  0  0  0  0
    2.6285    0.2204   -0.6187 H   0  0  0  0  0  0  0  0  0  0  0  0
    3.6880   -2.0214   -0.6454 H   0  0  0  0  0  0  0  0  0  0  0  0
    2.2475   -2.0080    0.4001 H   0  0  0  0  0  0  0  0  0  0  0  0
    2.1630   -2.7353   -1.2223 H   0  0  0  0  0  0  0  0  0  0  0  0
   -2.1184    1.2144   -2.5474 H   0  0  0  0  0  0  0  0  0  0  0  0
   -2.3502    3.2523   -3.9079 H   0  0  0  0  0  0  0  0  0  0  0  0
   -2.7453    4.2771   -5.6907 H   0  0  0  0  0  0  0  0  0  0  0  0
   -1.7923    5.1848   -4.4923 H   0  0  0  0  0  0  0  0  0  0  0  0
   -1.8094    5.7048   -6.1945 H   0  0  0  0  0  0  0  0  0  0  0  0
    1.5970    3.2350   -6.5134 H   0  0  0  0  0  0  0  0  0  0  0  0
    2.8945    2.1854   -8.5986 H   0  0  0  0  0  0  0  0  0  0  0  0
    4.0422    2.2796   -7.2413 H   0  0  0  0  0  0  0  0  0  0  0  0
    4.3742   -0.1752   -7.3515 H   0  0  0  0  0  0  0  0  0  0  0  0
    3.2265   -0.2695   -8.7088 H   0  0  0  0  0  0  0  0  0  0  0  0
    4.7033    1.2977  -10.0031 H   0  0  0  0  0  0  0  0  0  0  0  0
    5.7789    2.3869   -8.0524 H   0  0  0  0  0  0  0  0  0  0  0  0
    6.5852    0.8542   -7.6412 H   0  0  0  0  0  0  0  0  0  0  0  0
    6.9303    2.4034  -10.2485 H   0  0  0  0  0  0  0  0  0  0  0  0
    8.1045    2.3460   -8.9120 H   0  0  0  0  0  0  0  0  0  0  0  0
    8.7082    0.7340  -10.6968 H   0  0  0  0  0  0  0  0  0  0  0  0
    8.2958   -0.1111   -9.1854 H   0  0  0  0  0  0  0  0  0  0  0  0
    6.4138    0.3324  -11.5473 H   0  0  0  0  0  0  0  0  0  0  0  0
    7.2201   -1.2002  -11.1361 H   0  0  0  0  0  0  0  0  0  0  0  0
    6.0687   -1.2167   -8.9401 H   0  0  0  0  0  0  0  0  0  0  0  0
    4.8946   -1.1594  -10.2766 H   0  0  0  0  0  0  0  0  0  0  0  0
    1.4665    0.2126   -4.6287 H   0  0  0  0  0  0  0  0  0  0  0  0
  1  2  1  0
  1 28  1  6
  1 29  1  0
  1 30  1  0
  2  3  1  0
  2 31  1  1
  2 32  1  0
  3  4  1  0
  6  3  1  1
  4  5  1  0
  4 33  1  6
  4 34  1  0
  5 35  1  1
  5 36  1  0
  5 37  1  0
  6  7  2  0
  6  8  2  0
  6  9  1  0
  9 27  2  0
  9 10  1  0
 10 11  2  0
 10 38  1  0
 11 12  1  0
 11 39  1  0
 12 13  1  0
 12 15  2  0
 13 14  1  0
 14 40  1  1
 14 41  1  0
 14 42  1  0
 15 16  1  0
 15 27  1  0
 16 17  1  0
 16 43  1  0
 17 18  2  0
 17 19  1  0
 19 20  1  0
 19 44  1  6
 19 45  1  0
 20 21  1  0
 20 46  1  1
 20 47  1  0
 21 26  1  0
 21 22  1  0
 21 48  1  6
 22 23  1  0
 22 49  1  1
 22 50  1  0
 23 24  1  0
 23 51  1  6
 23 52  1  0
 24 25  1  0
 24 53  1  6
 24 54  1  0
 25 26  1  0
 25 55  1  6
 25 56  1  0
 26 57  1  1
 26 58  1  0
 27 59  1  0
M  END
$$$$
