ZINC000013098002
     RDKit          3D

 43 44  0  0  0  0  0  0  0  0999 V2000
   -0.1856    1.4094   -0.3138 C   0  0  1  0  0  0  0  0  0  0  0  0
   -0.2338   -0.0544   -0.3473 N   0  0  0  0  0  0  0  0  0  0  0  0
    0.9798   -0.8208   -0.6407 C   0  0  1  0  0  0  0  0  0  0  0  0
   -1.3947   -0.6960   -0.1082 C   0  0  0  0  0  0  0  0  0  0  0  0
   -2.3994   -0.0616    0.1347 O   0  0  0  0  0  0  0  0  0  0  0  0
   -1.4443   -2.2018   -0.1427 C   0  0  1  0  0  0  0  0  0  0  0  0
   -0.4845   -2.7677    0.9064 C   0  0  1  0  0  0  0  0  0  0  0  0
   -0.5118   -4.2982    0.8449 C   0  0  1  0  0  0  0  0  0  0  0  0
   -1.9014   -4.7526    0.9908 N   0  0  0  0  0  0  0  0  0  0  0  0
   -2.3083   -5.8645    2.1486 S   0  0  1  0  0  0  0  0  0  0  0  0
   -3.4014   -6.6067    1.6256 O   0  0  0  0  0  0  0  0  0  0  0  0
   -1.0925   -6.4657    2.5724 O   0  0  0  0  0  0  0  0  0  0  0  0
   -2.9309   -4.9711    3.5338 C   0  0  0  0  0  0  0  0  0  0  0  0
   -4.2638   -5.0779    3.8828 C   0  0  0  0  0  0  0  0  0  0  0  0
   -4.7525   -4.3769    4.9697 C   0  0  0  0  0  0  0  0  0  0  0  0
   -6.2061   -4.4939    5.3497 C   0  0  1  0  0  0  0  0  0  0  0  0
   -6.3683   -5.5490    6.2538 F   0  0  0  0  0  0  0  0  0  0  0  0
   -6.6301   -3.3007    5.9445 F   0  0  0  0  0  0  0  0  0  0  0  0
   -6.9693   -4.7404    4.2034 F   0  0  0  0  0  0  0  0  0  0  0  0
   -3.9082   -3.5692    5.7081 C   0  0  0  0  0  0  0  0  0  0  0  0
   -2.5748   -3.4615    5.3601 C   0  0  0  0  0  0  0  0  0  0  0  0
   -2.0841   -4.1667    4.2759 C   0  0  0  0  0  0  0  0  0  0  0  0
   -0.4096   -4.0320    3.8381 Cl  0  0  0  0  0  0  0  0  0  0  0  0
   -2.9231   -4.2014    0.0903 C   0  0  1  0  0  0  0  0  0  0  0  0
   -2.8688   -2.6721    0.1603 C   0  0  1  0  0  0  0  0  0  0  0  0
    0.8289    1.7446   -0.5295 H   0  0  0  0  0  0  0  0  0  0  0  0
   -0.8682    1.8127   -1.0618 H   0  0  0  0  0  0  0  0  0  0  0  0
   -0.4815    1.7602    0.6749 H   0  0  0  0  0  0  0  0  0  0  0  0
    1.5040   -1.0411    0.2892 H   0  0  0  0  0  0  0  0  0  0  0  0
    0.7096   -1.7537   -1.1354 H   0  0  0  0  0  0  0  0  0  0  0  0
    1.6286   -0.2376   -1.2942 H   0  0  0  0  0  0  0  0  0  0  0  0
   -1.1488   -2.5523   -1.1316 H   0  0  0  0  0  0  0  0  0  0  0  0
    0.5262   -2.4134    0.7036 H   0  0  0  0  0  0  0  0  0  0  0  0
   -0.7940   -2.4379    1.8982 H   0  0  0  0  0  0  0  0  0  0  0  0
   -0.1169   -4.6324   -0.1145 H   0  0  0  0  0  0  0  0  0  0  0  0
    0.0933   -4.7072    1.6540 H   0  0  0  0  0  0  0  0  0  0  0  0
   -4.9239   -5.7089    3.3061 H   0  0  0  0  0  0  0  0  0  0  0  0
   -4.2906   -3.0218    6.5570 H   0  0  0  0  0  0  0  0  0  0  0  0
   -1.9152   -2.8303    5.9371 H   0  0  0  0  0  0  0  0  0  0  0  0
   -2.7249   -4.5278   -0.9306 H   0  0  0  0  0  0  0  0  0  0  0  0
   -3.9091   -4.5467    0.4015 H   0  0  0  0  0  0  0  0  0  0  0  0
   -3.1558   -2.3431    1.1591 H   0  0  0  0  0  0  0  0  0  0  0  0
   -3.5552   -2.2497   -0.5736 H   0  0  0  0  0  0  0  0  0  0  0  0
  1  2  1  0
  1 26  1  6
  1 27  1  0
  1 28  1  0
  2  3  1  0
  2  4  1  0
  3 29  1  1
  3 30  1  0
  3 31  1  0
  4  5  2  0
  4  6  1  0
  6 25  1  0
  6  7  1  0
  6 32  1  6
  7  8  1  0
  7 33  1  6
  7 34  1  0
  8  9  1  0
  8 35  1  6
  8 36  1  0
 10  9  1  6
  9 24  1  0
 10 11  2  0
 10 12  2  0
 10 13  1  0
 13 22  2  0
 13 14  1  0
 14 15  2  0
 14 37  1  0
 15 16  1  0
 15 20  1  0
 16 17  1  1
 16 18  1  0
 16 19  1  0
 20 21  2  0
 20 38  1  0
 21 22  1  0
 21 39  1  0
 22 23  1  0
 24 25  1  0
 24 40  1  6
 24 41  1  0
 25 42  1  1
 25 43  1  0
M  END
$$$$
