ZINC000012622971
     RDKit          3D

 40 41  0  0  1  0  0  0  0  0999 V2000
    1.4394    0.0664    0.7915 C   0  0  1  0  0  0  0  0  0  0  0  0
    0.8627   -0.9142   -0.1107 O   0  0  0  0  0  0  0  0  0  0  0  0
   -0.2819   -1.4992    0.2760 C   0  0  0  0  0  0  0  0  0  0  0  0
   -0.8665   -1.0955    1.2533 O   0  0  0  0  0  0  0  0  0  0  0  0
   -0.8378   -2.6594   -0.5088 C   0  0  1  0  0  0  0  0  0  0  0  0
   -2.2860   -2.9141   -0.0858 C   0  0  2  0  0  0  0  0  0  0  0  0
   -2.4411   -2.5428    0.9272 H   0  0  0  0  0  0  0  0  0  0  0  0
   -2.5718   -4.3904   -0.1306 C   0  0  0  0  0  0  0  0  0  0  0  0
   -1.7762   -5.1494    0.3812 O   0  0  0  0  0  0  0  0  0  0  0  0
   -3.6600   -4.9029   -0.7068 N   0  0  0  0  0  0  0  0  0  0  0  0
   -4.6529   -4.1263   -1.4365 C   0  0  1  0  0  0  0  0  0  0  0  0
   -4.6057   -2.6555   -1.0182 C   0  0  1  0  0  0  0  0  0  0  0  0
   -3.1976   -2.2220   -1.0091 N   0  0  0  0  0  0  0  0  0  0  0  0
   -2.6630   -1.0091   -2.0017 S   0  0  1  0  0  0  0  0  0  0  0  0
   -3.7279   -0.0736   -2.1016 O   0  0  0  0  0  0  0  0  0  0  0  0
   -1.3629   -0.6611   -1.5456 O   0  0  0  0  0  0  0  0  0  0  0  0
   -2.4575   -1.7026   -3.6084 C   0  0  0  0  0  0  0  0  0  0  0  0
   -1.3268   -2.4413   -3.9030 C   0  0  0  0  0  0  0  0  0  0  0  0
   -1.1656   -2.9854   -5.1635 C   0  0  0  0  0  0  0  0  0  0  0  0
   -2.1353   -2.7911   -6.1293 C   0  0  0  0  0  0  0  0  0  0  0  0
   -1.9593   -3.3837   -7.5037 C   0  0  1  0  0  0  0  0  0  0  0  0
   -2.5186   -4.6657   -7.5338 F   0  0  0  0  0  0  0  0  0  0  0  0
   -2.6002   -2.5731   -8.4467 F   0  0  0  0  0  0  0  0  0  0  0  0
   -0.5957   -3.4626   -7.8064 F   0  0  0  0  0  0  0  0  0  0  0  0
   -3.2666   -2.0535   -5.8344 C   0  0  0  0  0  0  0  0  0  0  0  0
   -3.4296   -1.5127   -4.5727 C   0  0  0  0  0  0  0  0  0  0  0  0
    2.3952    0.4079    0.3941 H   0  0  0  0  0  0  0  0  0  0  0  0
    0.7618    0.9147    0.8874 H   0  0  0  0  0  0  0  0  0  0  0  0
    1.5943   -0.3874    1.7704 H   0  0  0  0  0  0  0  0  0  0  0  0
   -0.8057   -2.4268   -1.5732 H   0  0  0  0  0  0  0  0  0  0  0  0
   -0.2403   -3.5498   -0.3133 H   0  0  0  0  0  0  0  0  0  0  0  0
   -3.7999   -5.8601   -0.6352 H   0  0  0  0  0  0  0  0  0  0  0  0
   -4.4528   -4.2019   -2.5053 H   0  0  0  0  0  0  0  0  0  0  0  0
   -5.6451   -4.5268   -1.2287 H   0  0  0  0  0  0  0  0  0  0  0  0
   -5.1712   -2.0527   -1.7288 H   0  0  0  0  0  0  0  0  0  0  0  0
   -5.0298   -2.5431   -0.0204 H   0  0  0  0  0  0  0  0  0  0  0  0
   -0.5692   -2.5932   -3.1484 H   0  0  0  0  0  0  0  0  0  0  0  0
   -0.2819   -3.5619   -5.3938 H   0  0  0  0  0  0  0  0  0  0  0  0
   -4.0243   -1.9020   -6.5889 H   0  0  0  0  0  0  0  0  0  0  0  0
   -4.3135   -0.9364   -4.3423 H   0  0  0  0  0  0  0  0  0  0  0  0
  1  2  1  0
  1 27  1  6
  1 28  1  0
  1 29  1  0
  2  3  1  0
  3  4  2  0
  3  5  1  0
  5  6  1  0
  5 30  1  6
  5 31  1  0
  6  7  1  1
  6 13  1  0
  6  8  1  0
  8  9  2  0
  8 10  1  0
 10 11  1  0
 10 32  1  0
 11 12  1  0
 11 33  1  6
 11 34  1  0
 12 13  1  0
 12 35  1  6
 12 36  1  0
 14 13  1  1
 14 15  2  0
 14 16  2  0
 14 17  1  0
 17 26  2  0
 17 18  1  0
 18 19  2  0
 18 37  1  0
 19 20  1  0
 19 38  1  0
 20 21  1  0
 20 25  2  0
 21 22  1  1
 21 23  1  0
 21 24  1  0
 25 26  1  0
 25 39  1  0
 26 40  1  0
M  END
$$$$
