ZINC000001158850
     RDKit          3D

 51 53  0  0  1  0  0  0  0  0999 V2000
    0.0021   -0.0041    0.0020 O   0  0  0  0  0  0  0  0  0  0  0  0
   -0.0144    1.2086    0.0087 C   0  0  0  0  0  0  0  0  0  0  0  0
    1.2803    1.9798    0.0005 C   0  0  1  0  0  0  0  0  0  0  0  0
    2.4066    1.0431   -0.0153 N   0  0  0  0  0  0  0  0  0  0  0  0
    2.8870    0.4965   -1.2868 C   0  0  1  0  0  0  0  0  0  0  0  0
    3.8656    1.4585   -1.9094 C   0  0  0  0  0  0  0  0  0  0  0  0
    3.4142    2.4469   -2.7641 C   0  0  0  0  0  0  0  0  0  0  0  0
    4.3113    3.3296   -3.3354 C   0  0  0  0  0  0  0  0  0  0  0  0
    5.6613    3.2238   -3.0519 C   0  0  0  0  0  0  0  0  0  0  0  0
    6.7886    4.3324   -3.7687 Cl  0  0  0  0  0  0  0  0  0  0  0  0
    6.1125    2.2344   -2.1965 C   0  0  0  0  0  0  0  0  0  0  0  0
    5.2138    1.3559   -1.6213 C   0  0  0  0  0  0  0  0  0  0  0  0
    3.1367    0.6021    1.4041 S   0  0  1  0  0  0  0  0  0  0  0  0
    4.4513    0.1819    1.0655 O   0  0  0  0  0  0  0  0  0  0  0  0
    2.8687    1.6430    2.3335 O   0  0  0  0  0  0  0  0  0  0  0  0
    2.2960   -0.8267    2.0012 C   0  0  0  0  0  0  0  0  0  0  0  0
    1.2047   -0.6868    2.8382 C   0  0  0  0  0  0  0  0  0  0  0  0
    0.5448   -1.8072    3.3069 C   0  0  0  0  0  0  0  0  0  0  0  0
    0.9766   -3.0688    2.9381 C   0  0  0  0  0  0  0  0  0  0  0  0
    0.1479   -4.4765    3.5259 Cl  0  0  0  0  0  0  0  0  0  0  0  0
    2.0688   -3.2082    2.1004 C   0  0  0  0  0  0  0  0  0  0  0  0
    2.7245   -2.0869    1.6278 C   0  0  0  0  0  0  0  0  0  0  0  0
   -1.1906    1.8666    0.0178 N   0  0  0  0  0  0  0  0  0  0  0  0
   -2.4492    1.1169    0.0197 C   0  0  1  0  0  0  0  0  0  0  0  0
   -3.6255    2.0952    0.0306 C   0  0  2  0  0  0  0  0  0  0  0  0
   -3.5231    2.7871    0.8666 H   0  0  0  0  0  0  0  0  0  0  0  0
   -4.9530    1.3168    0.1546 C   0  0  1  0  0  0  0  0  0  0  0  0
   -5.8894    2.1083   -0.7986 C   0  0  1  0  0  0  0  0  0  0  0  0
   -4.8891    2.5440   -1.8988 C   0  0  1  0  0  0  0  0  0  0  0  0
   -3.6626    2.8243   -1.2018 O   0  0  0  0  0  0  0  0  0  0  0  0
    1.3211    2.6120   -0.8866 H   0  0  0  0  0  0  0  0  0  0  0  0
    1.3381    2.6024    0.8933 H   0  0  0  0  0  0  0  0  0  0  0  0
    3.3803   -0.4590   -1.1083 H   0  0  0  0  0  0  0  0  0  0  0  0
    2.0432    0.3494   -1.9610 H   0  0  0  0  0  0  0  0  0  0  0  0
    2.3604    2.5292   -2.9856 H   0  0  0  0  0  0  0  0  0  0  0  0
    3.9585    4.1015   -4.0033 H   0  0  0  0  0  0  0  0  0  0  0  0
    7.1663    2.1511   -1.9751 H   0  0  0  0  0  0  0  0  0  0  0  0
    5.5658    0.5837   -0.9533 H   0  0  0  0  0  0  0  0  0  0  0  0
    0.8680    0.2980    3.1262 H   0  0  0  0  0  0  0  0  0  0  0  0
   -0.3075   -1.6978    3.9611 H   0  0  0  0  0  0  0  0  0  0  0  0
    2.4065   -4.1928    1.8125 H   0  0  0  0  0  0  0  0  0  0  0  0
    3.5768   -2.1955    0.9736 H   0  0  0  0  0  0  0  0  0  0  0  0
   -1.2037    2.8365    0.0232 H   0  0  0  0  0  0  0  0  0  0  0  0
   -2.5027    0.4944   -0.8734 H   0  0  0  0  0  0  0  0  0  0  0  0
   -2.4943    0.4847    0.9065 H   0  0  0  0  0  0  0  0  0  0  0  0
   -4.8328    0.2883   -0.1856 H   0  0  0  0  0  0  0  0  0  0  0  0
   -5.3262    1.3469    1.1783 H   0  0  0  0  0  0  0  0  0  0  0  0
   -6.6680    1.4648   -1.2081 H   0  0  0  0  0  0  0  0  0  0  0  0
   -6.3216    2.9734   -0.2957 H   0  0  0  0  0  0  0  0  0  0  0  0
   -4.7413    1.7373   -2.6167 H   0  0  0  0  0  0  0  0  0  0  0  0
   -5.2493    3.4401   -2.4042 H   0  0  0  0  0  0  0  0  0  0  0  0
  1  2  2  0
  2  3  1  0
  2 23  1  0
  3  4  1  0
  3 31  1  6
  3 32  1  0
  4  5  1  0
 13  4  1  6
  5  6  1  0
  5 33  1  1
  5 34  1  0
  6 12  2  0
  6  7  1  0
  7  8  2  0
  7 35  1  0
  8  9  1  0
  8 36  1  0
  9 10  1  0
  9 11  2  0
 11 12  1  0
 11 37  1  0
 12 38  1  0
 13 14  2  0
 13 15  2  0
 13 16  1  0
 16 22  2  0
 16 17  1  0
 17 18  2  0
 17 39  1  0
 18 19  1  0
 18 40  1  0
 19 20  1  0
 19 21  2  0
 21 22  1  0
 21 41  1  0
 22 42  1  0
 23 24  1  0
 23 43  1  0
 24 25  1  0
 24 44  1  6
 24 45  1  0
 25 26  1  1
 25 30  1  0
 25 27  1  0
 27 28  1  0
 27 46  1  6
 27 47  1  0
 28 29  1  0
 28 48  1  6
 28 49  1  0
 29 30  1  0
 29 50  1  6
 29 51  1  0
M  END
$$$$
