ZINC000047267020
     RDKit          3D

 44 46  0  0  1  0  0  0  0  0999 V2000
    0.0545    0.1413    0.3114 O   0  0  0  0  0  0  0  0  0  0  0  0
   -0.0038    1.3413    0.1457 C   0  0  0  0  0  0  0  0  0  0  0  0
   -1.3335    1.9430   -0.1963 C   0  0  1  0  0  0  0  0  0  0  0  0
   -1.2060    2.8175   -1.4483 C   0  0  1  0  0  0  0  0  0  0  0  0
   -0.4507    2.4016   -2.1151 H   0  0  0  0  0  0  0  0  0  0  0  0
   -2.5326    2.8896   -2.1596 C   0  0  0  0  0  0  0  0  0  0  0  0
   -3.6406    3.3959   -1.5063 C   0  0  0  0  0  0  0  0  0  0  0  0
   -4.8575    3.4620   -2.1588 C   0  0  0  0  0  0  0  0  0  0  0  0
   -4.9662    3.0221   -3.4648 C   0  0  0  0  0  0  0  0  0  0  0  0
   -3.8580    2.5166   -4.1184 C   0  0  0  0  0  0  0  0  0  0  0  0
   -2.6402    2.4545   -3.4673 C   0  0  0  0  0  0  0  0  0  0  0  0
   -0.8012    4.1552   -1.0113 N   0  0  0  0  0  0  0  0  0  0  0  0
   -1.2819    5.5041   -1.8429 S   0  0  1  0  0  0  0  0  0  0  0  0
   -2.3643    5.1008   -2.6705 O   0  0  0  0  0  0  0  0  0  0  0  0
   -1.3826    6.5504   -0.8867 O   0  0  0  0  0  0  0  0  0  0  0  0
    0.0353    5.9456   -2.9267 C   0  0  0  0  0  0  0  0  0  0  0  0
    1.0491    6.7732   -2.4812 C   0  0  0  0  0  0  0  0  0  0  0  0
    2.0825    7.1195   -3.3315 C   0  0  0  0  0  0  0  0  0  0  0  0
    2.1024    6.6380   -4.6271 C   0  0  0  0  0  0  0  0  0  0  0  0
    3.2288    7.0160   -5.5542 C   0  0  1  0  0  0  0  0  0  0  0  0
    4.2618    6.0796   -5.4390 F   0  0  0  0  0  0  0  0  0  0  0  0
    2.7613    7.0348   -6.8726 F   0  0  0  0  0  0  0  0  0  0  0  0
    3.7090    8.2846   -5.2115 F   0  0  0  0  0  0  0  0  0  0  0  0
    1.0894    5.8094   -5.0722 C   0  0  0  0  0  0  0  0  0  0  0  0
    0.0580    5.4599   -4.2207 C   0  0  0  0  0  0  0  0  0  0  0  0
    0.0465    4.2676    0.1911 C   0  0  1  0  0  0  0  0  0  0  0  0
    1.3207    3.4495   -0.0408 C   0  0  1  0  0  0  0  0  0  0  0  0
    1.1119    2.0460    0.2829 N   0  0  0  0  0  0  0  0  0  0  0  0
   -2.0538    1.1466   -0.3832 H   0  0  0  0  0  0  0  0  0  0  0  0
   -1.6797    2.5535    0.6377 H   0  0  0  0  0  0  0  0  0  0  0  0
   -3.5556    3.7396   -0.4860 H   0  0  0  0  0  0  0  0  0  0  0  0
   -5.7233    3.8569   -1.6481 H   0  0  0  0  0  0  0  0  0  0  0  0
   -5.9171    3.0730   -3.9743 H   0  0  0  0  0  0  0  0  0  0  0  0
   -3.9431    2.1726   -5.1386 H   0  0  0  0  0  0  0  0  0  0  0  0
   -1.7744    2.0596   -3.9780 H   0  0  0  0  0  0  0  0  0  0  0  0
    1.0335    7.1494   -1.4690 H   0  0  0  0  0  0  0  0  0  0  0  0
    2.8741    7.7666   -2.9836 H   0  0  0  0  0  0  0  0  0  0  0  0
    1.1052    5.4329   -6.0843 H   0  0  0  0  0  0  0  0  0  0  0  0
   -0.7334    4.8125   -4.5685 H   0  0  0  0  0  0  0  0  0  0  0  0
    0.3065    5.3124    0.3610 H   0  0  0  0  0  0  0  0  0  0  0  0
   -0.4890    3.8763    1.0561 H   0  0  0  0  0  0  0  0  0  0  0  0
    1.6163    3.5381   -1.0862 H   0  0  0  0  0  0  0  0  0  0  0  0
    2.1178    3.8443    0.5891 H   0  0  0  0  0  0  0  0  0  0  0  0
    1.8800    1.5688    0.6337 H   0  0  0  0  0  0  0  0  0  0  0  0
  1  2  2  0
  2 28  1  0
  2  3  1  0
  3  4  1  0
  3 29  1  6
  3 30  1  0
  4  5  1  6
  4  6  1  0
  4 12  1  0
  6 11  2  0
  6  7  1  0
  7  8  2  0
  7 31  1  0
  8  9  1  0
  8 32  1  0
  9 10  2  0
  9 33  1  0
 10 11  1  0
 10 34  1  0
 11 35  1  0
 13 12  1  1
 12 26  1  0
 13 14  2  0
 13 15  2  0
 13 16  1  0
 16 25  2  0
 16 17  1  0
 17 18  2  0
 17 36  1  0
 18 19  1  0
 18 37  1  0
 19 20  1  0
 19 24  2  0
 20 21  1  6
 20 22  1  0
 20 23  1  0
 24 25  1  0
 24 38  1  0
 25 39  1  0
 26 27  1  0
 26 40  1  1
 26 41  1  0
 27 28  1  0
 27 42  1  6
 27 43  1  0
 28 44  1  0
M  END
$$$$
