ZINC000046294920
     RDKit          3D

 56 57  0  0  0  0  0  0  0  0999 V2000
    0.0146    1.5423    0.0425 C   0  0  1  0  0  0  0  0  0  0  0  0
    0.0399    0.0125    0.0336 C   0  0  1  0  0  0  0  0  0  0  0  0
   -1.3330   -0.4986    0.0347 N   0  0  0  0  0  0  0  0  0  0  0  0
   -2.0619   -0.6432   -1.2279 C   0  0  1  0  0  0  0  0  0  0  0  0
   -1.7166   -1.9909   -1.8646 C   0  0  1  0  0  0  0  0  0  0  0  0
   -2.0611   -0.9129    1.4632 S   0  0  1  0  0  0  0  0  0  0  0  0
   -3.0836   -1.8442    1.1371 O   0  0  0  0  0  0  0  0  0  0  0  0
   -1.0133   -1.1983    2.3797 O   0  0  0  0  0  0  0  0  0  0  0  0
   -2.8750    0.5270    2.0706 C   0  0  0  0  0  0  0  0  0  0  0  0
   -2.2008    1.4042    2.8995 C   0  0  0  0  0  0  0  0  0  0  0  0
   -2.8393    2.5338    3.3761 C   0  0  0  0  0  0  0  0  0  0  0  0
   -4.1518    2.7866    3.0234 C   0  0  0  0  0  0  0  0  0  0  0  0
   -4.8480    4.0179    3.5433 C   0  0  1  0  0  0  0  0  0  0  0  0
   -4.6313    5.1765    2.5678 C   0  0  1  0  0  0  0  0  0  0  0  0
   -5.3275    6.4078    3.0878 C   0  0  0  0  0  0  0  0  0  0  0  0
   -5.9370    6.3630    4.1354 O   0  0  0  0  0  0  0  0  0  0  0  0
   -5.2728    7.5587    2.3886 N   0  0  0  0  0  0  0  0  0  0  0  0
   -5.9982    8.6747    2.8203 C   0  0  0  0  0  0  0  0  0  0  0  0
   -6.5634    9.5390    1.8918 C   0  0  0  0  0  0  0  0  0  0  0  0
   -7.2787   10.6396    2.3211 C   0  0  0  0  0  0  0  0  0  0  0  0
   -7.4321   10.8817    3.6739 C   0  0  0  0  0  0  0  0  0  0  0  0
   -8.2129   12.0839    4.1388 C   0  0  1  0  0  0  0  0  0  0  0  0
   -9.6640   11.7098    4.2974 C   0  0  0  0  0  0  0  0  0  0  0  0
  -10.5570   12.6326    4.7069 N   0  0  0  0  0  0  0  0  0  0  0  0
  -10.0284   10.5783    4.0567 O   0  0  0  0  0  0  0  0  0  0  0  0
   -6.8709   10.0228    4.6010 C   0  0  0  0  0  0  0  0  0  0  0  0
   -6.1593    8.9172    4.1781 C   0  0  0  0  0  0  0  0  0  0  0  0
   -4.8255    1.9102    2.1934 C   0  0  0  0  0  0  0  0  0  0  0  0
   -4.1858    0.7825    1.7138 C   0  0  0  0  0  0  0  0  0  0  0  0
    1.0361    1.9226    0.0417 H   0  0  0  0  0  0  0  0  0  0  0  0
   -0.5078    1.9022   -0.8438 H   0  0  0  0  0  0  0  0  0  0  0  0
   -0.5025    1.8919    0.9361 H   0  0  0  0  0  0  0  0  0  0  0  0
    0.5570   -0.3371   -0.8600 H   0  0  0  0  0  0  0  0  0  0  0  0
    0.5623   -0.3474    0.9199 H   0  0  0  0  0  0  0  0  0  0  0  0
   -3.1338   -0.5960   -1.0361 H   0  0  0  0  0  0  0  0  0  0  0  0
   -1.7781    0.1621   -1.9055 H   0  0  0  0  0  0  0  0  0  0  0  0
   -0.6446   -2.0382   -2.0563 H   0  0  0  0  0  0  0  0  0  0  0  0
   -2.0003   -2.7962   -1.1870 H   0  0  0  0  0  0  0  0  0  0  0  0
   -2.2588   -2.0985   -2.8040 H   0  0  0  0  0  0  0  0  0  0  0  0
   -1.1754    1.2067    3.1751 H   0  0  0  0  0  0  0  0  0  0  0  0
   -2.3128    3.2188    4.0242 H   0  0  0  0  0  0  0  0  0  0  0  0
   -5.9153    3.8185    3.6393 H   0  0  0  0  0  0  0  0  0  0  0  0
   -4.4386    4.2824    4.5183 H   0  0  0  0  0  0  0  0  0  0  0  0
   -3.5640    5.3758    2.4718 H   0  0  0  0  0  0  0  0  0  0  0  0
   -5.0407    4.9120    1.5929 H   0  0  0  0  0  0  0  0  0  0  0  0
   -4.7307    7.6134    1.5861 H   0  0  0  0  0  0  0  0  0  0  0  0
   -6.4434    9.3508    0.8351 H   0  0  0  0  0  0  0  0  0  0  0  0
   -7.7185   11.3121    1.5995 H   0  0  0  0  0  0  0  0  0  0  0  0
   -7.8188   12.4250    5.0962 H   0  0  0  0  0  0  0  0  0  0  0  0
   -8.1220   12.8829    3.4030 H   0  0  0  0  0  0  0  0  0  0  0  0
  -10.2656   13.5375    4.8994 H   0  0  0  0  0  0  0  0  0  0  0  0
  -11.4910   12.3918    4.8090 H   0  0  0  0  0  0  0  0  0  0  0  0
   -6.9925   10.2146    5.6568 H   0  0  0  0  0  0  0  0  0  0  0  0
   -5.7212    8.2467    4.9027 H   0  0  0  0  0  0  0  0  0  0  0  0
   -5.8508    2.1078    1.9176 H   0  0  0  0  0  0  0  0  0  0  0  0
   -4.7122    0.0978    1.0653 H   0  0  0  0  0  0  0  0  0  0  0  0
  1  2  1  0
  1 30  1  1
  1 31  1  0
  1 32  1  0
  2  3  1  0
  2 33  1  6
  2 34  1  0
  3  4  1  0
  6  3  1  6
  4  5  1  0
  4 35  1  1
  4 36  1  0
  5 37  1  6
  5 38  1  0
  5 39  1  0
  6  7  2  0
  6  8  2  0
  6  9  1  0
  9 29  2  0
  9 10  1  0
 10 11  2  0
 10 40  1  0
 11 12  1  0
 11 41  1  0
 12 13  1  0
 12 28  2  0
 13 14  1  0
 13 42  1  1
 13 43  1  0
 14 15  1  0
 14 44  1  6
 14 45  1  0
 15 16  2  0
 15 17  1  0
 17 18  1  0
 17 46  1  0
 18 27  2  0
 18 19  1  0
 19 20  2  0
 19 47  1  0
 20 21  1  0
 20 48  1  0
 21 22  1  0
 21 26  2  0
 22 23  1  0
 22 49  1  1
 22 50  1  0
 23 24  1  0
 23 25  2  0
 24 51  1  0
 24 52  1  0
 26 27  1  0
 26 53  1  0
 27 54  1  0
 28 29  1  0
 28 55  1  0
 29 56  1  0
M  END
$$$$
