ZINC000584887900
     RDKit          3D

 40 40  0  0  1  0  0  0  0  0999 V2000
    0.2967    1.4251   -0.1031 C   0  0  1  0  0  0  0  0  0  0  0  0
   -0.0660   -0.0613   -0.0983 C   0  0  1  0  0  0  0  0  0  0  0  0
   -1.4588   -0.2445    0.5078 C   0  0  1  0  0  0  0  0  0  0  0  0
   -1.4888    0.2162    1.4952 H   0  0  0  0  0  0  0  0  0  0  0  0
   -2.4310    0.3751   -0.3367 O   0  0  0  0  0  0  0  0  0  0  0  0
   -2.8320    1.6765    0.0963 C   0  0  1  0  0  0  0  0  0  0  0  0
   -1.7639   -1.7152    0.6301 C   0  0  0  0  0  0  0  0  0  0  0  0
   -2.5932   -2.2247   -0.0935 O   0  0  0  0  0  0  0  0  0  0  0  0
   -1.1152   -2.4643    1.5436 N   0  0  0  0  0  0  0  0  0  0  0  0
   -0.1923   -1.8306    2.4886 C   0  0  1  0  0  0  0  0  0  0  0  0
   -1.3330   -3.9122    1.5916 C   0  0  1  0  0  0  0  0  0  0  0  0
   -0.3385   -4.5998    0.6920 C   0  0  0  0  0  0  0  0  0  0  0  0
    0.8365   -5.0945    1.2251 C   0  0  0  0  0  0  0  0  0  0  0  0
    1.7448   -5.7260    0.3889 C   0  0  0  0  0  0  0  0  0  0  0  0
    3.0372   -6.2794    0.9314 C   0  0  1  0  0  0  0  0  0  0  0  0
    1.4354   -5.8364   -0.9579 C   0  0  0  0  0  0  0  0  0  0  0  0
    0.2403   -5.3171   -1.4192 C   0  0  0  0  0  0  0  0  0  0  0  0
   -0.1067   -5.4319   -2.8812 C   0  0  1  0  0  0  0  0  0  0  0  0
   -0.6021   -4.7273   -0.5939 N   0  0  0  0  0  0  0  0  0  0  0  0
    1.2980    1.5535   -0.5141 H   0  0  0  0  0  0  0  0  0  0  0  0
   -0.4203    1.9721   -0.7153 H   0  0  0  0  0  0  0  0  0  0  0  0
    0.2707    1.8087    0.9169 H   0  0  0  0  0  0  0  0  0  0  0  0
   -0.0619   -0.4395   -1.1206 H   0  0  0  0  0  0  0  0  0  0  0  0
    0.6639   -0.6115    0.4955 H   0  0  0  0  0  0  0  0  0  0  0  0
   -3.1990    1.6214    1.1212 H   0  0  0  0  0  0  0  0  0  0  0  0
   -1.9787    2.3532    0.0518 H   0  0  0  0  0  0  0  0  0  0  0  0
   -3.6243    2.0476   -0.5538 H   0  0  0  0  0  0  0  0  0  0  0  0
   -0.7432   -1.5034    3.3704 H   0  0  0  0  0  0  0  0  0  0  0  0
    0.5739   -2.5473    2.7841 H   0  0  0  0  0  0  0  0  0  0  0  0
    0.2789   -0.9697    2.0144 H   0  0  0  0  0  0  0  0  0  0  0  0
   -1.2026   -4.2655    2.6145 H   0  0  0  0  0  0  0  0  0  0  0  0
   -2.3446   -4.1388    1.2550 H   0  0  0  0  0  0  0  0  0  0  0  0
    1.0450   -4.9904    2.2797 H   0  0  0  0  0  0  0  0  0  0  0  0
    2.8878   -7.3136    1.2416 H   0  0  0  0  0  0  0  0  0  0  0  0
    3.8031   -6.2395    0.1568 H   0  0  0  0  0  0  0  0  0  0  0  0
    3.3556   -5.6855    1.7881 H   0  0  0  0  0  0  0  0  0  0  0  0
    2.1196   -6.3217   -1.6382 H   0  0  0  0  0  0  0  0  0  0  0  0
   -0.6512   -6.3602   -3.0536 H   0  0  0  0  0  0  0  0  0  0  0  0
   -0.7285   -4.5861   -3.1746 H   0  0  0  0  0  0  0  0  0  0  0  0
    0.8087   -5.4323   -3.4730 H   0  0  0  0  0  0  0  0  0  0  0  0
  1  2  1  0
  1 20  1  6
  1 21  1  0
  1 22  1  0
  2  3  1  0
  2 23  1  6
  2 24  1  0
  3  4  1  1
  3  5  1  0
  3  7  1  0
  5  6  1  0
  6 25  1  1
  6 26  1  0
  6 27  1  0
  7  8  2  0
  7  9  1  0
  9 10  1  0
  9 11  1  0
 10 28  1  1
 10 29  1  0
 10 30  1  0
 11 12  1  0
 11 31  1  1
 11 32  1  0
 12 19  2  0
 12 13  1  0
 13 14  2  0
 13 33  1  0
 14 15  1  0
 14 16  1  0
 15 34  1  1
 15 35  1  0
 15 36  1  0
 16 17  2  0
 16 37  1  0
 17 18  1  0
 17 19  1  0
 18 38  1  1
 18 39  1  0
 18 40  1  0
M  END
$$$$
