ZINC000408626149
     RDKit          3D

 50 51  0  0  1  0  0  0  0  0999 V2000
   -0.0173    1.4248    0.0099 C   0  0  1  0  0  0  0  0  0  0  0  0
    0.0021   -0.0041    0.0020 O   0  0  0  0  0  0  0  0  0  0  0  0
    0.6518   -0.5703   -1.1379 C   0  0  1  0  0  0  0  0  0  0  0  0
    0.6131   -2.0967   -1.0411 C   0  0  1  0  0  0  0  0  0  0  0  0
    1.1847   -2.5275   -1.8631 H   0  0  0  0  0  0  0  0  0  0  0  0
    1.2226   -2.5389    0.2908 C   0  0  1  0  0  0  0  0  0  0  0  0
   -0.7759   -2.5559   -1.1188 N   0  0  0  0  0  0  0  0  0  0  0  0
   -1.0505   -3.8014   -1.5545 C   0  0  0  0  0  0  0  0  0  0  0  0
   -0.1478   -4.5420   -1.8822 O   0  0  0  0  0  0  0  0  0  0  0  0
   -2.4794   -4.2737   -1.6345 C   0  0  1  0  0  0  0  0  0  0  0  0
   -2.5113   -5.6507   -2.1337 N   0  0  0  0  0  0  0  0  0  0  0  0
   -2.3406   -6.7707   -1.2049 C   0  0  1  0  0  0  0  0  0  0  0  0
   -3.6703   -7.1173   -0.5862 C   0  0  0  0  0  0  0  0  0  0  0  0
   -4.0693   -6.5010    0.5851 C   0  0  0  0  0  0  0  0  0  0  0  0
   -5.2890   -6.8190    1.1527 C   0  0  0  0  0  0  0  0  0  0  0  0
   -6.1100   -7.7528    0.5487 C   0  0  0  0  0  0  0  0  0  0  0  0
   -5.7114   -8.3684   -0.6231 C   0  0  0  0  0  0  0  0  0  0  0  0
   -4.4936   -8.0473   -1.1930 C   0  0  0  0  0  0  0  0  0  0  0  0
   -2.7403   -5.9412   -3.7479 S   0  0  1  0  0  0  0  0  0  0  0  0
   -3.2658   -7.2576   -3.8481 O   0  0  0  0  0  0  0  0  0  0  0  0
   -3.4025   -4.7980   -4.2713 O   0  0  0  0  0  0  0  0  0  0  0  0
   -1.1481   -5.9823   -4.5014 C   0  0  0  0  0  0  0  0  0  0  0  0
   -0.5870   -4.8190   -4.9944 C   0  0  0  0  0  0  0  0  0  0  0  0
    0.6618   -4.8501   -5.5857 C   0  0  0  0  0  0  0  0  0  0  0  0
    1.3511   -6.0469   -5.6837 C   0  0  0  0  0  0  0  0  0  0  0  0
    2.5721   -6.0784   -6.2611 F   0  0  0  0  0  0  0  0  0  0  0  0
    0.7884   -7.2113   -5.1891 C   0  0  0  0  0  0  0  0  0  0  0  0
   -0.4584   -7.1769   -4.5940 C   0  0  0  0  0  0  0  0  0  0  0  0
    1.0053    1.8021    0.0021 H   0  0  0  0  0  0  0  0  0  0  0  0
   -0.5445    1.7859   -0.8732 H   0  0  0  0  0  0  0  0  0  0  0  0
   -0.5275    1.7763    0.9067 H   0  0  0  0  0  0  0  0  0  0  0  0
    0.1385   -0.2506   -2.0447 H   0  0  0  0  0  0  0  0  0  0  0  0
    1.6883   -0.2344   -1.1694 H   0  0  0  0  0  0  0  0  0  0  0  0
    1.1950   -3.6264    0.3598 H   0  0  0  0  0  0  0  0  0  0  0  0
    2.2560   -2.1973    0.3487 H   0  0  0  0  0  0  0  0  0  0  0  0
    0.6509   -2.1081    1.1128 H   0  0  0  0  0  0  0  0  0  0  0  0
   -1.4979   -1.9635   -0.8568 H   0  0  0  0  0  0  0  0  0  0  0  0
   -2.9305   -4.2361   -0.6430 H   0  0  0  0  0  0  0  0  0  0  0  0
   -3.0379   -3.6284   -2.3125 H   0  0  0  0  0  0  0  0  0  0  0  0
   -1.9549   -7.6352   -1.7451 H   0  0  0  0  0  0  0  0  0  0  0  0
   -1.6376   -6.4888   -0.4210 H   0  0  0  0  0  0  0  0  0  0  0  0
   -3.4279   -5.7714    1.0570 H   0  0  0  0  0  0  0  0  0  0  0  0
   -5.6004   -6.3380    2.0682 H   0  0  0  0  0  0  0  0  0  0  0  0
   -7.0626   -8.0017    0.9924 H   0  0  0  0  0  0  0  0  0  0  0  0
   -6.3526   -9.0982   -1.0949 H   0  0  0  0  0  0  0  0  0  0  0  0
   -4.1822   -8.5282   -2.1085 H   0  0  0  0  0  0  0  0  0  0  0  0
   -1.1249   -3.8857   -4.9178 H   0  0  0  0  0  0  0  0  0  0  0  0
    1.0996   -3.9413   -5.9714 H   0  0  0  0  0  0  0  0  0  0  0  0
    1.3250   -8.1454   -5.2654 H   0  0  0  0  0  0  0  0  0  0  0  0
   -0.8975   -8.0850   -4.2079 H   0  0  0  0  0  0  0  0  0  0  0  0
  1  2  1  0
  1 29  1  6
  1 30  1  0
  1 31  1  0
  2  3  1  0
  3  4  1  0
  3 32  1  6
  3 33  1  0
  4  5  1  6
  4  6  1  0
  4  7  1  0
  6 34  1  1
  6 35  1  0
  6 36  1  0
  7  8  1  0
  7 37  1  0
  8  9  2  0
  8 10  1  0
 10 11  1  0
 10 38  1  1
 10 39  1  0
 11 12  1  0
 19 11  1  1
 12 13  1  0
 12 40  1  6
 12 41  1  0
 13 18  2  0
 13 14  1  0
 14 15  2  0
 14 42  1  0
 15 16  1  0
 15 43  1  0
 16 17  2  0
 16 44  1  0
 17 18  1  0
 17 45  1  0
 18 46  1  0
 19 20  2  0
 19 21  2  0
 19 22  1  0
 22 28  2  0
 22 23  1  0
 23 24  2  0
 23 47  1  0
 24 25  1  0
 24 48  1  0
 25 26  1  0
 25 27  2  0
 27 28  1  0
 27 49  1  0
 28 50  1  0
M  END
$$$$
