ZINC000007308187
     RDKit          3D

 37 38  0  0  1  0  0  0  0  0999 V2000
   -0.0187    1.5258    0.0104 C   0  0  1  0  0  0  0  0  0  0  0  0
    0.0021   -0.0041    0.0020 C   0  0  1  0  0  0  0  0  0  0  0  0
   -1.0202   -0.3821    0.0097 H   0  0  0  0  0  0  0  0  0  0  0  0
    0.7217   -0.4995   -1.2576 C   0  0  1  0  0  0  0  0  0  0  0  0
    2.1434   -0.1346   -1.1537 N   0  0  0  0  0  0  0  0  0  0  0  0
    2.9146    0.6508   -2.3910 S   0  0  1  0  0  0  0  0  0  0  0  0
    4.2993    0.3674   -2.2449 O   0  0  0  0  0  0  0  0  0  0  0  0
    2.1813    0.3564   -3.5720 O   0  0  0  0  0  0  0  0  0  0  0  0
    2.7281    2.3799   -2.1076 C   0  0  0  0  0  0  0  0  0  0  0  0
    1.6375    3.0518   -2.6274 C   0  0  0  0  0  0  0  0  0  0  0  0
    1.4912    4.4082   -2.4051 C   0  0  0  0  0  0  0  0  0  0  0  0
    2.4352    5.0928   -1.6627 C   0  0  0  0  0  0  0  0  0  0  0  0
    2.2759    6.5717   -1.4208 C   0  0  1  0  0  0  0  0  0  0  0  0
    1.5450    6.7759   -0.2455 F   0  0  0  0  0  0  0  0  0  0  0  0
    3.5379    7.1620   -1.2936 F   0  0  0  0  0  0  0  0  0  0  0  0
    1.5970    7.1501   -2.4986 F   0  0  0  0  0  0  0  0  0  0  0  0
    3.5251    4.4206   -1.1418 C   0  0  0  0  0  0  0  0  0  0  0  0
    3.6694    3.0634   -1.3608 C   0  0  0  0  0  0  0  0  0  0  0  0
    2.8596   -0.4879    0.0822 C   0  0  1  0  0  0  0  0  0  0  0  0
    2.0359    0.0069    1.2766 C   0  0  2  0  0  0  0  0  0  0  0  0
    2.0285    1.0968    1.2873 H   0  0  0  0  0  0  0  0  0  0  0  0
    2.6558   -0.5126    2.5753 C   0  0  1  0  0  0  0  0  0  0  0  0
    0.6954   -0.4786    1.1587 O   0  0  0  0  0  0  0  0  0  0  0  0
    1.0039    1.9031    0.0027 H   0  0  0  0  0  0  0  0  0  0  0  0
   -0.5459    1.8868   -0.8726 H   0  0  0  0  0  0  0  0  0  0  0  0
   -0.5289    1.8773    0.9072 H   0  0  0  0  0  0  0  0  0  0  0  0
    0.6252   -1.5825   -1.3336 H   0  0  0  0  0  0  0  0  0  0  0  0
    0.2853   -0.0289   -2.1387 H   0  0  0  0  0  0  0  0  0  0  0  0
    0.9000    2.5169   -3.2074 H   0  0  0  0  0  0  0  0  0  0  0  0
    0.6395    4.9333   -2.8117 H   0  0  0  0  0  0  0  0  0  0  0  0
    4.2624    4.9553   -0.5614 H   0  0  0  0  0  0  0  0  0  0  0  0
    4.5208    2.5382   -0.9539 H   0  0  0  0  0  0  0  0  0  0  0  0
    2.9784   -1.5698    0.1412 H   0  0  0  0  0  0  0  0  0  0  0  0
    3.8391   -0.0097    0.0885 H   0  0  0  0  0  0  0  0  0  0  0  0
    3.6783   -0.1450    2.6624 H   0  0  0  0  0  0  0  0  0  0  0  0
    2.0696   -0.1604    3.4241 H   0  0  0  0  0  0  0  0  0  0  0  0
    2.6612   -1.6026    2.5648 H   0  0  0  0  0  0  0  0  0  0  0  0
  1  2  1  0
  1 24  1  6
  1 25  1  0
  1 26  1  0
  2  3  1  1
  2 23  1  0
  2  4  1  0
  4  5  1  0
  4 27  1  6
  4 28  1  0
  6  5  1  1
  5 19  1  0
  6  7  2  0
  6  8  2  0
  6  9  1  0
  9 18  2  0
  9 10  1  0
 10 11  2  0
 10 29  1  0
 11 12  1  0
 11 30  1  0
 12 13  1  0
 12 17  2  0
 13 14  1  1
 13 15  1  0
 13 16  1  0
 17 18  1  0
 17 31  1  0
 18 32  1  0
 19 20  1  0
 19 33  1  1
 19 34  1  0
 20 21  1  1
 20 22  1  0
 20 23  1  0
 22 35  1  1
 22 36  1  0
 22 37  1  0
M  END
$$$$
