ZINC000237634822
     RDKit          3D

 39 40  0  0  1  0  0  0  0  0999 V2000
   -0.0187    1.5258    0.0104 C   0  0  1  0  0  0  0  0  0  0  0  0
    0.0021   -0.0041    0.0020 C   0  0  1  0  0  0  0  0  0  0  0  0
   -1.0198   -0.3834    0.0097 H   0  0  0  0  0  0  0  0  0  0  0  0
    0.7248   -0.5010   -1.2540 C   0  0  1  0  0  0  0  0  0  0  0  0
    2.1947   -0.0792   -1.1923 C   0  0  2  0  0  0  0  0  0  0  0  0
    2.2581    1.0063   -1.1163 H   0  0  0  0  0  0  0  0  0  0  0  0
    2.8835   -0.5257   -2.4106 N   0  0  1  0  0  0  0  0  0  0  0  0
    2.4465   -0.1055   -3.2172 H   0  0  0  0  0  0  0  0  0  0  0  0
    3.8526   -0.2477   -2.3701 H   0  0  0  0  0  0  0  0  0  0  0  0
    2.8244   -1.5304   -2.4813 H   0  0  0  0  0  0  0  0  0  0  0  0
    2.8589   -0.7156    0.0308 C   0  0  1  0  0  0  0  0  0  0  0  0
    2.1603   -0.2211    1.3014 C   0  0  1  0  0  0  0  0  0  0  0  0
    0.7181   -0.4935    1.1880 N   0  0  0  0  0  0  0  0  0  0  0  0
   -0.0772   -1.3353    2.3717 S   0  0  1  0  0  0  0  0  0  0  0  0
   -1.2290   -1.8983    1.7588 O   0  0  0  0  0  0  0  0  0  0  0  0
    0.9061   -2.1132    3.0405 O   0  0  0  0  0  0  0  0  0  0  0  0
   -0.6629   -0.1583    3.5448 C   0  0  0  0  0  0  0  0  0  0  0  0
   -2.0213    0.0187    3.7270 C   0  0  0  0  0  0  0  0  0  0  0  0
   -2.4811    0.9423    4.6475 C   0  0  0  0  0  0  0  0  0  0  0  0
   -1.5825    1.6894    5.3857 C   0  0  0  0  0  0  0  0  0  0  0  0
   -2.0845    2.6958    6.3887 C   0  0  1  0  0  0  0  0  0  0  0  0
   -2.2351    2.0773    7.6345 F   0  0  0  0  0  0  0  0  0  0  0  0
   -1.1651    3.7447    6.4970 F   0  0  0  0  0  0  0  0  0  0  0  0
   -3.3192    3.1997    5.9659 F   0  0  0  0  0  0  0  0  0  0  0  0
   -0.2235    1.5132    5.2043 C   0  0  0  0  0  0  0  0  0  0  0  0
    0.2371    0.5849    4.2880 C   0  0  0  0  0  0  0  0  0  0  0  0
    1.9437    0.3631    4.0597 Cl  0  0  0  0  0  0  0  0  0  0  0  0
    1.0039    1.9031    0.0027 H   0  0  0  0  0  0  0  0  0  0  0  0
   -0.5459    1.8868   -0.8726 H   0  0  0  0  0  0  0  0  0  0  0  0
   -0.5289    1.8773    0.9072 H   0  0  0  0  0  0  0  0  0  0  0  0
    0.6601   -1.5878   -1.3050 H   0  0  0  0  0  0  0  0  0  0  0  0
    0.2584   -0.0663   -2.1381 H   0  0  0  0  0  0  0  0  0  0  0  0
    2.7740   -1.8004   -0.0323 H   0  0  0  0  0  0  0  0  0  0  0  0
    3.9114   -0.4337    0.0612 H   0  0  0  0  0  0  0  0  0  0  0  0
    2.5633   -0.7457    2.1677 H   0  0  0  0  0  0  0  0  0  0  0  0
    2.3215    0.8511    1.4133 H   0  0  0  0  0  0  0  0  0  0  0  0
   -2.7239   -0.5642    3.1500 H   0  0  0  0  0  0  0  0  0  0  0  0
   -3.5428    1.0803    4.7895 H   0  0  0  0  0  0  0  0  0  0  0  0
    0.4785    2.0969    5.7812 H   0  0  0  0  0  0  0  0  0  0  0  0
  1  2  1  0
  1 28  1  6
  1 29  1  0
  1 30  1  0
  2  3  1  1
  2 13  1  0
  2  4  1  0
  4  5  1  0
  4 31  1  6
  4 32  1  0
  5  6  1  1
  5  7  1  0
  5 11  1  0
  7  8  1  6
  7  9  1  0
  7 10  1  0
 11 12  1  0
 11 33  1  6
 11 34  1  0
 12 13  1  0
 12 35  1  1
 12 36  1  0
 14 13  1  6
 14 15  2  0
 14 16  2  0
 14 17  1  0
 17 26  2  0
 17 18  1  0
 18 19  2  0
 18 37  1  0
 19 20  1  0
 19 38  1  0
 20 21  1  0
 20 25  2  0
 21 22  1  1
 21 23  1  0
 21 24  1  0
 25 26  1  0
 25 39  1  0
 26 27  1  0
M  CHG  1   7   1
M  END
$$$$
