ZINC000001703584
     RDKit          3D

 56 57  0  0  1  0  0  0  0  0999 V2000
    0.0220    1.5413    0.0335 C   0  0  1  0  0  0  0  0  0  0  0  0
    0.0326    0.0114    0.0204 C   0  0  1  0  0  0  0  0  0  0  0  0
   -1.4063   -0.5087    0.0323 C   0  0  1  0  0  0  0  0  0  0  0  0
   -1.3961   -1.9736    0.0198 N   0  0  0  0  0  0  0  0  0  0  0  0
   -1.2661   -2.7160    1.2761 C   0  0  1  0  0  0  0  0  0  0  0  0
   -2.6454   -2.8772    1.9183 C   0  0  1  0  0  0  0  0  0  0  0  0
   -2.5096   -3.6525    3.2303 C   0  0  1  0  0  0  0  0  0  0  0  0
   -1.5316   -2.7903   -1.4144 S   0  0  1  0  0  0  0  0  0  0  0  0
   -2.0372   -4.0795   -1.0958 O   0  0  0  0  0  0  0  0  0  0  0  0
   -2.1752   -1.9053   -2.3209 O   0  0  0  0  0  0  0  0  0  0  0  0
    0.1005   -3.0345   -2.0318 C   0  0  0  0  0  0  0  0  0  0  0  0
    0.6755   -2.0850   -2.8563 C   0  0  0  0  0  0  0  0  0  0  0  0
    1.9545   -2.2737   -3.3422 C   0  0  0  0  0  0  0  0  0  0  0  0
    2.6633   -3.4182   -3.0016 C   0  0  0  0  0  0  0  0  0  0  0  0
    3.9597   -3.6122   -3.4919 N   0  0  0  0  0  0  0  0  0  0  0  0
    4.2826   -3.1875   -4.7296 C   0  0  0  0  0  0  0  0  0  0  0  0
    3.4746   -2.5623   -5.3875 O   0  0  0  0  0  0  0  0  0  0  0  0
    5.5005   -3.4560   -5.2371 O   0  0  0  0  0  0  0  0  0  0  0  0
    5.7790   -2.9677   -6.5759 C   0  0  2  0  0  0  0  0  0  0  0  0
    5.2113   -2.0547   -6.7551 H   0  0  0  0  0  0  0  0  0  0  0  0
    5.3740   -4.0294   -7.6005 C   0  0  1  0  0  0  0  0  0  0  0  0
    3.8585   -4.2337   -7.5513 C   0  0  1  0  0  0  0  0  0  0  0  0
    7.2519   -2.6777   -6.7085 C   0  0  0  0  0  0  0  0  0  0  0  0
    7.7918   -1.6244   -7.3476 C   0  0  0  0  0  0  0  0  0  0  0  0
    9.1951   -1.7465   -7.2255 C   0  0  0  0  0  0  0  0  0  0  0  0
    9.4287   -2.8672   -6.5191 C   0  0  0  0  0  0  0  0  0  0  0  0
    8.2479   -3.4240   -6.2037 O   0  0  0  0  0  0  0  0  0  0  0  0
    2.0832   -4.3697   -2.1729 C   0  0  0  0  0  0  0  0  0  0  0  0
    0.8058   -4.1726   -1.6861 C   0  0  0  0  0  0  0  0  0  0  0  0
    1.0470    1.9119    0.0249 H   0  0  0  0  0  0  0  0  0  0  0  0
   -0.5044    1.9086   -0.8475 H   0  0  0  0  0  0  0  0  0  0  0  0
   -0.4842    1.8935    0.9323 H   0  0  0  0  0  0  0  0  0  0  0  0
    0.5388   -0.3407   -0.8784 H   0  0  0  0  0  0  0  0  0  0  0  0
    0.5590   -0.3558    0.9013 H   0  0  0  0  0  0  0  0  0  0  0  0
   -1.9124   -0.1565    0.9311 H   0  0  0  0  0  0  0  0  0  0  0  0
   -1.9327   -0.1414   -0.8486 H   0  0  0  0  0  0  0  0  0  0  0  0
   -0.8419   -3.6996    1.0746 H   0  0  0  0  0  0  0  0  0  0  0  0
   -0.6109   -2.1698    1.9547 H   0  0  0  0  0  0  0  0  0  0  0  0
   -3.0695   -1.8935    2.1198 H   0  0  0  0  0  0  0  0  0  0  0  0
   -3.3006   -3.4233    1.2397 H   0  0  0  0  0  0  0  0  0  0  0  0
   -1.8544   -3.1063    3.9089 H   0  0  0  0  0  0  0  0  0  0  0  0
   -3.4922   -3.7673    3.6878 H   0  0  0  0  0  0  0  0  0  0  0  0
   -2.0854   -4.6361    3.0288 H   0  0  0  0  0  0  0  0  0  0  0  0
    0.1238   -1.1951   -3.1209 H   0  0  0  0  0  0  0  0  0  0  0  0
    2.4028   -1.5321   -3.9868 H   0  0  0  0  0  0  0  0  0  0  0  0
    4.6258   -4.0523   -2.9410 H   0  0  0  0  0  0  0  0  0  0  0  0
    5.6641   -3.7006   -8.5984 H   0  0  0  0  0  0  0  0  0  0  0  0
    5.8751   -4.9690   -7.3675 H   0  0  0  0  0  0  0  0  0  0  0  0
    3.3575   -3.2941   -7.7842 H   0  0  0  0  0  0  0  0  0  0  0  0
    3.5700   -4.9901   -8.2812 H   0  0  0  0  0  0  0  0  0  0  0  0
    3.5684   -4.5625   -6.5534 H   0  0  0  0  0  0  0  0  0  0  0  0
    7.2562   -0.8369   -7.8568 H   0  0  0  0  0  0  0  0  0  0  0  0
    9.9370   -1.0701   -7.6234 H   0  0  0  0  0  0  0  0  0  0  0  0
   10.4008   -3.2518   -6.2481 H   0  0  0  0  0  0  0  0  0  0  0  0
    2.6319   -5.2609   -1.9062 H   0  0  0  0  0  0  0  0  0  0  0  0
    0.3542   -4.9120   -1.0413 H   0  0  0  0  0  0  0  0  0  0  0  0
  1  2  1  0
  1 30  1  1
  1 31  1  0
  1 32  1  0
  2  3  1  0
  2 33  1  6
  2 34  1  0
  3  4  1  0
  3 35  1  1
  3 36  1  0
  4  5  1  0
  8  4  1  1
  5  6  1  0
  5 37  1  6
  5 38  1  0
  6  7  1  0
  6 39  1  1
  6 40  1  0
  7 41  1  1
  7 42  1  0
  7 43  1  0
  8  9  2  0
  8 10  2  0
  8 11  1  0
 11 29  2  0
 11 12  1  0
 12 13  2  0
 12 44  1  0
 13 14  1  0
 13 45  1  0
 14 15  1  0
 14 28  2  0
 15 16  1  0
 15 46  1  0
 16 17  2  0
 16 18  1  0
 18 19  1  0
 19 20  1  6
 19 21  1  0
 19 23  1  0
 21 22  1  0
 21 47  1  6
 21 48  1  0
 22 49  1  6
 22 50  1  0
 22 51  1  0
 23 27  1  0
 23 24  2  0
 24 25  1  0
 24 52  1  0
 25 26  2  0
 25 53  1  0
 26 27  1  0
 26 54  1  0
 28 29  1  0
 28 55  1  0
 29 56  1  0
M  END
$$$$
