ZINC000003623094
     RDKit          3D

 50 52  0  0  1  0  0  0  0  0999 V2000
    0.0021   -0.0041    0.0020 O   0  0  0  0  0  0  0  0  0  0  0  0
   -0.0144    1.2086    0.0087 C   0  0  0  0  0  0  0  0  0  0  0  0
    1.1435    1.8983    0.0013 N   0  0  0  0  0  0  0  0  0  0  0  0
    2.4220    1.1832   -0.0147 C   0  0  2  0  0  0  0  0  0  0  0  0
    2.5831    0.3433    1.2540 C   0  0  1  0  0  0  0  0  0  0  0  0
    1.5516   -0.5992    1.3235 F   0  0  0  0  0  0  0  0  0  0  0  0
    3.8164   -0.3165    1.2230 F   0  0  0  0  0  0  0  0  0  0  0  0
    2.5288    1.1777    2.3756 F   0  0  0  0  0  0  0  0  0  0  0  0
    3.5427    2.1281   -0.1603 N   0  0  0  0  0  0  0  0  0  0  0  0
    4.1664    1.8112   -1.3094 C   0  0  0  0  0  0  0  0  0  0  0  0
    5.1419    2.3994   -1.7331 O   0  0  0  0  0  0  0  0  0  0  0  0
    3.5929    0.7761   -1.9335 N   0  0  0  0  0  0  0  0  0  0  0  0
    4.0633    0.2175   -3.2035 C   0  0  1  0  0  0  0  0  0  0  0  0
    5.0868   -0.8858   -2.9274 C   0  0  1  0  0  0  0  0  0  0  0  0
    5.5708   -1.4604   -4.2338 C   0  0  0  0  0  0  0  0  0  0  0  0
    4.9083   -2.5302   -4.8060 C   0  0  0  0  0  0  0  0  0  0  0  0
    5.3522   -3.0573   -6.0043 C   0  0  0  0  0  0  0  0  0  0  0  0
    6.4583   -2.5142   -6.6307 C   0  0  0  0  0  0  0  0  0  0  0  0
    7.1203   -1.4438   -6.0590 C   0  0  0  0  0  0  0  0  0  0  0  0
    6.6738   -0.9140   -4.8628 C   0  0  0  0  0  0  0  0  0  0  0  0
    2.5293    0.3103   -1.2493 C   0  0  0  0  0  0  0  0  0  0  0  0
    1.8089   -0.6150   -1.5568 O   0  0  0  0  0  0  0  0  0  0  0  0
   -1.3296    1.9443    0.0189 C   0  0  1  0  0  0  0  0  0  0  0  0
   -1.4285    2.8295   -1.2251 C   0  0  1  0  0  0  0  0  0  0  0  0
   -2.7637    3.5764   -1.2147 C   0  0  1  0  0  0  0  0  0  0  0  0
   -3.9130    2.5665   -1.2147 C   0  0  1  0  0  0  0  0  0  0  0  0
   -3.8141    1.6813    0.0293 C   0  0  1  0  0  0  0  0  0  0  0  0
   -2.4789    0.9344    0.0189 C   0  0  1  0  0  0  0  0  0  0  0  0
    1.1304    2.8682    0.0067 H   0  0  0  0  0  0  0  0  0  0  0  0
    3.7835    2.8404    0.4525 H   0  0  0  0  0  0  0  0  0  0  0  0
    3.2188   -0.1994   -3.7521 H   0  0  0  0  0  0  0  0  0  0  0  0
    4.5288    1.0048   -3.7965 H   0  0  0  0  0  0  0  0  0  0  0  0
    5.9314   -0.4688   -2.3788 H   0  0  0  0  0  0  0  0  0  0  0  0
    4.6214   -1.6730   -2.3345 H   0  0  0  0  0  0  0  0  0  0  0  0
    4.0440   -2.9545   -4.3166 H   0  0  0  0  0  0  0  0  0  0  0  0
    4.8350   -3.8936   -6.4510 H   0  0  0  0  0  0  0  0  0  0  0  0
    6.8056   -2.9265   -7.5666 H   0  0  0  0  0  0  0  0  0  0  0  0
    7.9847   -1.0197   -6.5482 H   0  0  0  0  0  0  0  0  0  0  0  0
    7.1910   -0.0777   -4.4162 H   0  0  0  0  0  0  0  0  0  0  0  0
   -1.3916    2.5653    0.9126 H   0  0  0  0  0  0  0  0  0  0  0  0
   -0.6097    3.5490   -1.2250 H   0  0  0  0  0  0  0  0  0  0  0  0
   -1.3664    2.2085   -2.1187 H   0  0  0  0  0  0  0  0  0  0  0  0
   -2.8257    4.1974   -0.3210 H   0  0  0  0  0  0  0  0  0  0  0  0
   -2.8342    4.2071   -2.1009 H   0  0  0  0  0  0  0  0  0  0  0  0
   -4.8643    3.0986   -1.2073 H   0  0  0  0  0  0  0  0  0  0  0  0
   -3.8510    1.9455   -2.1084 H   0  0  0  0  0  0  0  0  0  0  0  0
   -3.8761    2.3022    0.9230 H   0  0  0  0  0  0  0  0  0  0  0  0
   -4.6329    0.9618    0.0292 H   0  0  0  0  0  0  0  0  0  0  0  0
   -2.4169    0.3134   -0.8748 H   0  0  0  0  0  0  0  0  0  0  0  0
   -2.4084    0.3037    0.9051 H   0  0  0  0  0  0  0  0  0  0  0  0
  1  2  2  0
  2  3  1  0
  2 23  1  0
  3 29  1  0
  4  3  1  1
  4 21  1  0
  4  5  1  0
  4  9  1  0
  5  6  1  1
  5  7  1  0
  5  8  1  0
  9 10  1  0
  9 30  1  0
 10 11  2  0
 10 12  1  0
 12 13  1  0
 12 21  1  0
 13 14  1  0
 13 31  1  6
 13 32  1  0
 14 15  1  0
 14 33  1  1
 14 34  1  0
 15 20  2  0
 15 16  1  0
 16 17  2  0
 16 35  1  0
 17 18  1  0
 17 36  1  0
 18 19  2  0
 18 37  1  0
 19 20  1  0
 19 38  1  0
 20 39  1  0
 21 22  2  0
 23 28  1  0
 23 24  1  0
 23 40  1  1
 24 25  1  0
 24 41  1  6
 24 42  1  0
 25 26  1  0
 25 43  1  1
 25 44  1  0
 26 27  1  0
 26 45  1  1
 26 46  1  0
 27 28  1  0
 27 47  1  1
 27 48  1  0
 28 49  1  6
 28 50  1  0
M  END
$$$$
