ZINC000514288717
     RDKit          3D

 46 49  0  0  1  0  0  0  0  0999 V2000
   -0.0206    1.4541   -0.0045 C   0  0  1  0  0  0  0  0  0  0  0  0
   -0.0026   -0.0107   -0.0030 N   0  0  0  0  0  0  0  0  0  0  0  0
   -0.0091   -0.6495   -1.1929 C   0  0  0  0  0  0  0  0  0  0  0  0
    0.0911   -0.0335   -2.2364 O   0  0  0  0  0  0  0  0  0  0  0  0
   -0.1424   -2.1316   -1.1857 C   0  0  0  0  0  0  0  0  0  0  0  0
    0.7416   -2.9624   -1.8566 C   0  0  0  0  0  0  0  0  0  0  0  0
    0.4973   -4.3241   -1.8679 C   0  0  0  0  0  0  0  0  0  0  0  0
    1.4453   -5.2545   -2.5796 C   0  0  1  0  0  0  0  0  0  0  0  0
    2.5009   -5.5886   -1.7244 F   0  0  0  0  0  0  0  0  0  0  0  0
    0.7636   -6.4171   -2.9552 F   0  0  0  0  0  0  0  0  0  0  0  0
    1.9515   -4.6218   -3.7200 F   0  0  0  0  0  0  0  0  0  0  0  0
   -0.6192   -4.8314   -1.2239 C   0  0  0  0  0  0  0  0  0  0  0  0
   -1.4812   -4.0039   -0.5312 C   0  0  0  0  0  0  0  0  0  0  0  0
   -1.2245   -2.6374   -0.4730 C   0  0  0  0  0  0  0  0  0  0  0  0
   -1.9233   -1.8602    0.3771 O   0  0  0  0  0  0  0  0  0  0  0  0
   -1.2830   -1.4671    1.5809 C   0  0  1  0  0  0  0  0  0  0  0  0
   -1.9543   -0.8561    2.1845 H   0  0  0  0  0  0  0  0  0  0  0  0
   -0.8128   -2.6957    2.3800 C   0  0  1  0  0  0  0  0  0  0  0  0
    0.5274   -3.0198    1.8669 N   0  0  0  0  0  0  0  0  0  0  0  0
    1.2684   -4.4968    1.9738 S   0  0  1  0  0  0  0  0  0  0  0  0
    0.2301   -5.4668    1.9854 O   0  0  0  0  0  0  0  0  0  0  0  0
    2.3156   -4.4908    1.0132 O   0  0  0  0  0  0  0  0  0  0  0  0
    2.0433   -4.5785    3.5541 C   0  0  0  0  0  0  0  0  0  0  0  0
    3.3055   -4.0440    3.7335 C   0  0  0  0  0  0  0  0  0  0  0  0
    3.9134   -4.1080    4.9733 C   0  0  0  0  0  0  0  0  0  0  0  0
    3.2590   -4.7061    6.0339 C   0  0  0  0  0  0  0  0  0  0  0  0
    1.9965   -5.2398    5.8548 C   0  0  0  0  0  0  0  0  0  0  0  0
    1.3868   -5.1719    4.6160 C   0  0  0  0  0  0  0  0  0  0  0  0
    1.0998   -1.8211    1.2447 C   0  0  1  0  0  0  0  0  0  0  0  0
    0.0271   -0.6916    1.2727 C   0  0  1  0  0  0  0  0  0  0  0  0
    0.2498    0.0137    2.0734 H   0  0  0  0  0  0  0  0  0  0  0  0
    1.0023    1.8301   -0.0221 H   0  0  0  0  0  0  0  0  0  0  0  0
   -0.5537    1.8100   -0.8862 H   0  0  0  0  0  0  0  0  0  0  0  0
   -0.5240    1.8123    0.8935 H   0  0  0  0  0  0  0  0  0  0  0  0
    1.6047   -2.5542   -2.3613 H   0  0  0  0  0  0  0  0  0  0  0  0
   -0.8194   -5.8920   -1.2645 H   0  0  0  0  0  0  0  0  0  0  0  0
   -2.3494   -4.4149   -0.0376 H   0  0  0  0  0  0  0  0  0  0  0  0
   -0.7609   -2.4560    3.4420 H   0  0  0  0  0  0  0  0  0  0  0  0
   -1.4909   -3.5331    2.2156 H   0  0  0  0  0  0  0  0  0  0  0  0
    3.8168   -3.5767    2.9048 H   0  0  0  0  0  0  0  0  0  0  0  0
    4.8998   -3.6911    5.1132 H   0  0  0  0  0  0  0  0  0  0  0  0
    3.7343   -4.7568    7.0024 H   0  0  0  0  0  0  0  0  0  0  0  0
    1.4853   -5.7074    6.6833 H   0  0  0  0  0  0  0  0  0  0  0  0
    0.4004   -5.5889    4.4761 H   0  0  0  0  0  0  0  0  0  0  0  0
    1.9796   -1.5009    1.8029 H   0  0  0  0  0  0  0  0  0  0  0  0
    1.3772   -2.0382    0.2132 H   0  0  0  0  0  0  0  0  0  0  0  0
  1  2  1  0
  1 32  1  6
  1 33  1  0
  1 34  1  0
  2 30  1  0
  2  3  1  0
  3  4  2  0
  3  5  1  0
  5 14  2  0
  5  6  1  0
  6  7  2  0
  6 35  1  0
  7  8  1  0
  7 12  1  0
  8  9  1  1
  8 10  1  0
  8 11  1  0
 12 13  2  0
 12 36  1  0
 13 14  1  0
 13 37  1  0
 14 15  1  0
 15 16  1  0
 16 17  1  1
 16 30  1  0
 16 18  1  0
 18 19  1  0
 18 38  1  1
 18 39  1  0
 20 19  1  1
 19 29  1  0
 20 21  2  0
 20 22  2  0
 20 23  1  0
 23 28  2  0
 23 24  1  0
 24 25  2  0
 24 40  1  0
 25 26  1  0
 25 41  1  0
 26 27  2  0
 26 42  1  0
 27 28  1  0
 27 43  1  0
 28 44  1  0
 29 30  1  0
 29 45  1  1
 29 46  1  0
 30 31  1  1
M  END
$$$$
