ZINC000012919449
     RDKit          3D

 47 49  0  0  1  0  0  0  0  0999 V2000
    0.0021   -0.0041    0.0020 O   0  0  0  0  0  0  0  0  0  0  0  0
   -0.0144    1.2086    0.0087 C   0  0  0  0  0  0  0  0  0  0  0  0
    1.1435    1.8983    0.0013 N   0  0  0  0  0  0  0  0  0  0  0  0
    2.4220    1.1832   -0.0147 C   0  0  1  0  0  0  0  0  0  0  0  0
    3.5540    2.1779   -0.0202 C   0  0  0  0  0  0  0  0  0  0  0  0
    4.0580    2.6449   -1.2197 C   0  0  0  0  0  0  0  0  0  0  0  0
    5.0964    3.5574   -1.2247 C   0  0  0  0  0  0  0  0  0  0  0  0
    5.6304    4.0033   -0.0302 C   0  0  0  0  0  0  0  0  0  0  0  0
    6.7628    4.9977   -0.0357 C   0  0  1  0  0  0  0  0  0  0  0  0
    6.2430    6.2964   -0.0182 F   0  0  0  0  0  0  0  0  0  0  0  0
    7.5623    4.8002    1.0952 F   0  0  0  0  0  0  0  0  0  0  0  0
    7.5342    4.8196   -1.1891 F   0  0  0  0  0  0  0  0  0  0  0  0
    5.1256    3.5374    1.1693 C   0  0  0  0  0  0  0  0  0  0  0  0
    4.0846    2.6278    1.1744 C   0  0  0  0  0  0  0  0  0  0  0  0
   -1.3296    1.9443    0.0189 C   0  0  2  0  0  0  0  0  0  0  0  0
   -1.4016    2.5867   -0.8587 H   0  0  0  0  0  0  0  0  0  0  0  0
   -1.4458    2.7937    1.3021 C   0  0  1  0  0  0  0  0  0  0  0  0
   -2.9413    2.6402    1.6861 C   0  0  1  0  0  0  0  0  0  0  0  0
   -3.2216    1.1758    1.2658 C   0  0  1  0  0  0  0  0  0  0  0  0
   -2.4409    0.9817    0.0266 N   0  0  0  0  0  0  0  0  0  0  0  0
   -2.7641   -0.1348   -1.1529 S   0  0  1  0  0  0  0  0  0  0  0  0
   -1.5387   -0.3644   -1.8347 O   0  0  0  0  0  0  0  0  0  0  0  0
   -3.5133   -1.1699   -0.5311 O   0  0  0  0  0  0  0  0  0  0  0  0
   -3.8440    0.6319   -2.3150 C   0  0  0  0  0  0  0  0  0  0  0  0
   -5.2134    0.5514   -2.1428 C   0  0  0  0  0  0  0  0  0  0  0  0
   -6.0614    1.1523   -3.0537 C   0  0  0  0  0  0  0  0  0  0  0  0
   -5.5390    1.8356   -4.1388 C   0  0  0  0  0  0  0  0  0  0  0  0
   -6.3671    2.4238   -5.0296 F   0  0  0  0  0  0  0  0  0  0  0  0
   -4.1674    1.9159   -4.3099 C   0  0  0  0  0  0  0  0  0  0  0  0
   -3.3213    1.3183   -3.3952 C   0  0  0  0  0  0  0  0  0  0  0  0
    1.1304    2.8682    0.0067 H   0  0  0  0  0  0  0  0  0  0  0  0
    2.4967    0.5526    0.8712 H   0  0  0  0  0  0  0  0  0  0  0  0
    2.4797    0.5621   -0.9086 H   0  0  0  0  0  0  0  0  0  0  0  0
    3.6407    2.2965   -2.1529 H   0  0  0  0  0  0  0  0  0  0  0  0
    5.4906    3.9217   -2.1619 H   0  0  0  0  0  0  0  0  0  0  0  0
    5.5426    3.8860    2.1026 H   0  0  0  0  0  0  0  0  0  0  0  0
    3.6902    2.2638    2.1116 H   0  0  0  0  0  0  0  0  0  0  0  0
   -0.8032    2.3958    2.0875 H   0  0  0  0  0  0  0  0  0  0  0  0
   -1.2054    3.8369    1.0972 H   0  0  0  0  0  0  0  0  0  0  0  0
   -3.0849    2.7732    2.7584 H   0  0  0  0  0  0  0  0  0  0  0  0
   -3.5630    3.3347    1.1212 H   0  0  0  0  0  0  0  0  0  0  0  0
   -2.8834    0.4874    2.0403 H   0  0  0  0  0  0  0  0  0  0  0  0
   -4.2843    1.0344    1.0691 H   0  0  0  0  0  0  0  0  0  0  0  0
   -5.6206    0.0183   -1.2964 H   0  0  0  0  0  0  0  0  0  0  0  0
   -7.1311    1.0887   -2.9194 H   0  0  0  0  0  0  0  0  0  0  0  0
   -3.7589    2.4483   -5.1561 H   0  0  0  0  0  0  0  0  0  0  0  0
   -2.2514    1.3811   -3.5283 H   0  0  0  0  0  0  0  0  0  0  0  0
  1  2  2  0
  2  3  1  0
  2 15  1  0
  3  4  1  0
  3 31  1  0
  4  5  1  0
  4 32  1  1
  4 33  1  0
  5 14  2  0
  5  6  1  0
  6  7  2  0
  6 34  1  0
  7  8  1  0
  7 35  1  0
  8  9  1  0
  8 13  2  0
  9 10  1  1
  9 11  1  0
  9 12  1  0
 13 14  1  0
 13 36  1  0
 14 37  1  0
 15 16  1  6
 15 20  1  0
 15 17  1  0
 17 18  1  0
 17 38  1  1
 17 39  1  0
 18 19  1  0
 18 40  1  1
 18 41  1  0
 19 20  1  0
 19 42  1  1
 19 43  1  0
 21 20  1  1
 21 22  2  0
 21 23  2  0
 21 24  1  0
 24 30  2  0
 24 25  1  0
 25 26  2  0
 25 44  1  0
 26 27  1  0
 26 45  1  0
 27 28  1  0
 27 29  2  0
 29 30  1  0
 29 46  1  0
 30 47  1  0
M  END
$$$$
