ZINC000012793042
     RDKit          3D

 51 53  0  0  1  0  0  0  0  0999 V2000
    0.2223    1.4393    0.1491 C   0  0  1  0  0  0  0  0  0  0  0  0
    0.0503   -0.0662   -0.0624 C   0  0  2  0  0  0  0  0  0  0  0  0
   -1.0103   -0.3169   -0.0438 H   0  0  0  0  0  0  0  0  0  0  0  0
    0.7253   -0.7737    0.9796 O   0  0  0  0  0  0  0  0  0  0  0  0
   -0.0093   -1.1126    2.0715 C   0  0  0  0  0  0  0  0  0  0  0  0
    0.5535   -1.8894    3.0738 C   0  0  0  0  0  0  0  0  0  0  0  0
   -0.1953   -2.2321    4.1830 C   0  0  0  0  0  0  0  0  0  0  0  0
   -1.5046   -1.8021    4.2946 C   0  0  0  0  0  0  0  0  0  0  0  0
   -2.0679   -1.0282    3.2968 C   0  0  0  0  0  0  0  0  0  0  0  0
   -1.3215   -0.6776    2.1885 C   0  0  0  0  0  0  0  0  0  0  0  0
    0.6354   -0.4563   -1.3953 C   0  0  0  0  0  0  0  0  0  0  0  0
    1.6604   -1.1028   -1.4417 O   0  0  0  0  0  0  0  0  0  0  0  0
    0.0195   -0.0867   -2.5357 N   0  0  0  0  0  0  0  0  0  0  0  0
   -1.1552    0.7957   -2.4993 C   0  0  1  0  0  0  0  0  0  0  0  0
   -0.8809    2.0137   -3.3902 C   0  0  1  0  0  0  0  0  0  0  0  0
   -0.3896    1.5419   -4.6924 N   0  0  0  0  0  0  0  0  0  0  0  0
   -1.1456    1.9969   -6.0937 S   0  0  1  0  0  0  0  0  0  0  0  0
   -0.8318    1.0032   -7.0598 O   0  0  0  0  0  0  0  0  0  0  0  0
   -2.4774    2.3414   -5.7375 O   0  0  0  0  0  0  0  0  0  0  0  0
   -0.3766    3.4844   -6.6420 C   0  0  0  0  0  0  0  0  0  0  0  0
   -0.8596    4.7087   -6.2192 C   0  0  0  0  0  0  0  0  0  0  0  0
   -0.2563    5.8756   -6.6494 C   0  0  0  0  0  0  0  0  0  0  0  0
    0.8303    5.8183   -7.5020 C   0  0  0  0  0  0  0  0  0  0  0  0
    1.4878    7.0906   -7.9713 C   0  0  1  0  0  0  0  0  0  0  0  0
    2.5039    7.4473   -7.0783 F   0  0  0  0  0  0  0  0  0  0  0  0
    2.0340    6.8913   -9.2438 F   0  0  0  0  0  0  0  0  0  0  0  0
    0.5358    8.1142   -8.0276 F   0  0  0  0  0  0  0  0  0  0  0  0
    1.3142    4.5940   -7.9237 C   0  0  0  0  0  0  0  0  0  0  0  0
    0.7132    3.4269   -7.4905 C   0  0  0  0  0  0  0  0  0  0  0  0
    0.7851    0.6595   -4.7288 C   0  0  1  0  0  0  0  0  0  0  0  0
    0.5143   -0.5540   -3.8383 C   0  0  1  0  0  0  0  0  0  0  0  0
    1.2827    1.6747    0.2401 H   0  0  0  0  0  0  0  0  0  0  0  0
   -0.1973    1.9760   -0.7018 H   0  0  0  0  0  0  0  0  0  0  0  0
   -0.2960    1.7399    1.0597 H   0  0  0  0  0  0  0  0  0  0  0  0
    1.5759   -2.2261    2.9868 H   0  0  0  0  0  0  0  0  0  0  0  0
    0.2424   -2.8368    4.9636 H   0  0  0  0  0  0  0  0  0  0  0  0
   -2.0884   -2.0714    5.1624 H   0  0  0  0  0  0  0  0  0  0  0  0
   -3.0910   -0.6939    3.3861 H   0  0  0  0  0  0  0  0  0  0  0  0
   -1.7619   -0.0731    1.4094 H   0  0  0  0  0  0  0  0  0  0  0  0
   -2.0276    0.2590   -2.8719 H   0  0  0  0  0  0  0  0  0  0  0  0
   -1.3344    1.1243   -1.4756 H   0  0  0  0  0  0  0  0  0  0  0  0
   -1.8020    2.5795   -3.5299 H   0  0  0  0  0  0  0  0  0  0  0  0
   -0.1271    2.6469   -2.9223 H   0  0  0  0  0  0  0  0  0  0  0  0
   -1.7085    4.7534   -5.5531 H   0  0  0  0  0  0  0  0  0  0  0  0
   -0.6341    6.8322   -6.3197 H   0  0  0  0  0  0  0  0  0  0  0  0
    2.1634    4.5492   -8.5895 H   0  0  0  0  0  0  0  0  0  0  0  0
    1.0913    2.4704   -7.8199 H   0  0  0  0  0  0  0  0  0  0  0  0
    0.9643    0.3310   -5.7525 H   0  0  0  0  0  0  0  0  0  0  0  0
    1.6576    1.1962   -4.3562 H   0  0  0  0  0  0  0  0  0  0  0  0
    1.4361   -1.1189   -3.6994 H   0  0  0  0  0  0  0  0  0  0  0  0
   -0.2399   -1.1884   -4.3039 H   0  0  0  0  0  0  0  0  0  0  0  0
  1  2  1  0
  1 32  1  1
  1 33  1  0
  1 34  1  0
  2  3  1  6
  2  4  1  0
  2 11  1  0
  4  5  1  0
  5 10  2  0
  5  6  1  0
  6  7  2  0
  6 35  1  0
  7  8  1  0
  7 36  1  0
  8  9  2  0
  8 37  1  0
  9 10  1  0
  9 38  1  0
 10 39  1  0
 11 12  2  0
 11 13  1  0
 13 31  1  0
 13 14  1  0
 14 15  1  0
 14 40  1  6
 14 41  1  0
 15 16  1  0
 15 42  1  6
 15 43  1  0
 17 16  1  1
 16 30  1  0
 17 18  2  0
 17 19  2  0
 17 20  1  0
 20 29  2  0
 20 21  1  0
 21 22  2  0
 21 44  1  0
 22 23  1  0
 22 45  1  0
 23 24  1  0
 23 28  2  0
 24 25  1  1
 24 26  1  0
 24 27  1  0
 28 29  1  0
 28 46  1  0
 29 47  1  0
 30 31  1  0
 30 48  1  6
 30 49  1  0
 31 50  1  1
 31 51  1  0
M  END
$$$$
