ZINC000008220330
     RDKit          3D

 43 44  0  0  1  0  0  0  0  0999 V2000
   -2.8829    1.4441   -2.5996 C   0  0  1  0  0  0  0  0  0  0  0  0
   -1.5236    0.8202   -2.2772 C   0  0  1  0  0  0  0  0  0  0  0  0
   -1.6722   -0.1551   -1.8136 H   0  0  0  0  0  0  0  0  0  0  0  0
   -0.7318    0.6563   -3.5490 C   0  0  0  0  0  0  0  0  0  0  0  0
    0.3383    1.2135   -3.6731 O   0  0  0  0  0  0  0  0  0  0  0  0
   -1.2128   -0.1094   -4.5483 N   0  0  0  0  0  0  0  0  0  0  0  0
   -0.4318   -0.3486   -5.6845 C   0  0  0  0  0  0  0  0  0  0  0  0
   -1.0349   -0.4781   -6.9287 C   0  0  0  0  0  0  0  0  0  0  0  0
   -0.2609   -0.7097   -8.0489 C   0  0  0  0  0  0  0  0  0  0  0  0
    1.1123   -0.8228   -7.9310 C   0  0  0  0  0  0  0  0  0  0  0  0
    1.9533   -1.0808   -9.1545 C   0  0  1  0  0  0  0  0  0  0  0  0
    2.0908   -2.4601   -9.3435 F   0  0  0  0  0  0  0  0  0  0  0  0
    1.3331   -0.5162  -10.2742 F   0  0  0  0  0  0  0  0  0  0  0  0
    3.2168   -0.5056   -8.9817 F   0  0  0  0  0  0  0  0  0  0  0  0
    1.7154   -0.6991   -6.6928 C   0  0  0  0  0  0  0  0  0  0  0  0
    0.9474   -0.4626   -5.5695 C   0  0  0  0  0  0  0  0  0  0  0  0
   -0.7920    1.6927   -1.3555 N   0  0  0  0  0  0  0  0  0  0  0  0
   -0.5940    3.0377   -1.6758 C   0  0  0  0  0  0  0  0  0  0  0  0
    0.6769    3.4968   -1.9978 C   0  0  0  0  0  0  0  0  0  0  0  0
    0.8683    4.8264   -2.3187 C   0  0  0  0  0  0  0  0  0  0  0  0
   -0.2016    5.7024   -2.3096 C   0  0  0  0  0  0  0  0  0  0  0  0
   -1.4672    5.2498   -1.9844 C   0  0  0  0  0  0  0  0  0  0  0  0
   -1.6665    3.9204   -1.6676 C   0  0  0  0  0  0  0  0  0  0  0  0
   -0.1997    1.0843    0.0663 S   0  0  1  0  0  0  0  0  0  0  0  0
   -1.5348    1.3532    1.2647 C   0  0  1  0  0  0  0  0  0  0  0  0
   -0.0312   -0.3033   -0.1895 O   0  0  0  0  0  0  0  0  0  0  0  0
    0.9139    1.9146    0.3659 O   0  0  0  0  0  0  0  0  0  0  0  0
   -2.7342    2.4193   -3.0633 H   0  0  0  0  0  0  0  0  0  0  0  0
   -3.4272    0.7949   -3.2854 H   0  0  0  0  0  0  0  0  0  0  0  0
   -3.4555    1.5627   -1.6798 H   0  0  0  0  0  0  0  0  0  0  0  0
   -2.1003   -0.4948   -4.4800 H   0  0  0  0  0  0  0  0  0  0  0  0
   -2.1077   -0.3940   -7.0209 H   0  0  0  0  0  0  0  0  0  0  0  0
   -0.7289   -0.8068   -9.0173 H   0  0  0  0  0  0  0  0  0  0  0  0
    2.7881   -0.7878   -6.6039 H   0  0  0  0  0  0  0  0  0  0  0  0
    1.4191   -0.3660   -4.6027 H   0  0  0  0  0  0  0  0  0  0  0  0
    1.5137    2.8141   -2.0008 H   0  0  0  0  0  0  0  0  0  0  0  0
    1.8554    5.1832   -2.5731 H   0  0  0  0  0  0  0  0  0  0  0  0
   -0.0484    6.7426   -2.5566 H   0  0  0  0  0  0  0  0  0  0  0  0
   -2.3006    5.9367   -1.9779 H   0  0  0  0  0  0  0  0  0  0  0  0
   -2.6551    3.5676   -1.4135 H   0  0  0  0  0  0  0  0  0  0  0  0
   -1.1767    1.1167    2.2666 H   0  0  0  0  0  0  0  0  0  0  0  0
   -1.8510    2.3957    1.2285 H   0  0  0  0  0  0  0  0  0  0  0  0
   -2.3788    0.7087    1.0189 H   0  0  0  0  0  0  0  0  0  0  0  0
  1  2  1  0
  1 28  1  6
  1 29  1  0
  1 30  1  0
  2  3  1  1
  2  4  1  0
  2 17  1  0
  4  5  2  0
  4  6  1  0
  6  7  1  0
  6 31  1  0
  7 16  2  0
  7  8  1  0
  8  9  2  0
  8 32  1  0
  9 10  1  0
  9 33  1  0
 10 11  1  0
 10 15  2  0
 11 12  1  6
 11 13  1  0
 11 14  1  0
 15 16  1  0
 15 34  1  0
 16 35  1  0
 17 18  1  0
 24 17  1  6
 18 23  2  0
 18 19  1  0
 19 20  2  0
 19 36  1  0
 20 21  1  0
 20 37  1  0
 21 22  2  0
 21 38  1  0
 22 23  1  0
 22 39  1  0
 23 40  1  0
 24 25  1  0
 24 26  2  0
 24 27  2  0
 25 41  1  1
 25 42  1  0
 25 43  1  0
M  END
$$$$
