ZINC000019929624
     RDKit          3D

 51 52  0  0  1  0  0  0  0  0999 V2000
   -0.0187    1.5258    0.0104 C   0  0  1  0  0  0  0  0  0  0  0  0
    0.0021   -0.0041    0.0020 C   0  0  1  0  0  0  0  0  0  0  0  0
    0.6878   -0.4765   -1.2033 N   0  0  0  0  0  0  0  0  0  0  0  0
    2.1478   -0.5966   -1.2159 C   0  0  1  0  0  0  0  0  0  0  0  0
    2.5471   -1.9310   -0.6407 C   0  0  0  0  0  0  0  0  0  0  0  0
    1.6959   -2.7055   -0.2578 O   0  0  0  0  0  0  0  0  0  0  0  0
    3.8501   -2.2637   -0.5516 N   0  0  0  0  0  0  0  0  0  0  0  0
    4.2383   -3.5610    0.0076 C   0  0  1  0  0  0  0  0  0  0  0  0
    5.7631   -3.6864   -0.0056 C   0  0  2  0  0  0  0  0  0  0  0  0
    6.1398   -3.5100   -1.0131 H   0  0  0  0  0  0  0  0  0  0  0  0
    6.1768   -5.0960    0.4690 C   0  0  1  0  0  0  0  0  0  0  0  0
    7.4322   -4.7976    1.3331 C   0  0  1  0  0  0  0  0  0  0  0  0
    7.0504   -3.4251    1.9426 C   0  0  1  0  0  0  0  0  0  0  0  0
    6.3366   -2.7369    0.9007 O   0  0  0  0  0  0  0  0  0  0  0  0
   -0.1875   -0.8749   -2.5515 S   0  0  1  0  0  0  0  0  0  0  0  0
    0.6166   -1.7761   -3.3001 O   0  0  0  0  0  0  0  0  0  0  0  0
   -1.4970   -1.1925   -2.1004 O   0  0  0  0  0  0  0  0  0  0  0  0
   -0.3375    0.5853   -3.5262 C   0  0  0  0  0  0  0  0  0  0  0  0
   -1.4062    1.4398   -3.3290 C   0  0  0  0  0  0  0  0  0  0  0  0
   -1.5259    2.5857   -4.0916 C   0  0  0  0  0  0  0  0  0  0  0  0
   -0.5726    2.8783   -5.0558 C   0  0  0  0  0  0  0  0  0  0  0  0
   -0.6878    4.0050   -5.8070 O   0  0  0  0  0  0  0  0  0  0  0  0
   -1.8163    4.8433   -5.5502 C   0  0  1  0  0  0  0  0  0  0  0  0
    0.4991    2.0191   -5.2518 C   0  0  0  0  0  0  0  0  0  0  0  0
    1.5369    2.3342   -6.2981 C   0  0  1  0  0  0  0  0  0  0  0  0
    0.6170    0.8775   -4.4832 C   0  0  0  0  0  0  0  0  0  0  0  0
    1.0039    1.9031    0.0027 H   0  0  0  0  0  0  0  0  0  0  0  0
   -0.5459    1.8868   -0.8726 H   0  0  0  0  0  0  0  0  0  0  0  0
   -0.5289    1.8773    0.9072 H   0  0  0  0  0  0  0  0  0  0  0  0
    0.5293   -0.3651    0.8851 H   0  0  0  0  0  0  0  0  0  0  0  0
   -1.0205   -0.3814    0.0098 H   0  0  0  0  0  0  0  0  0  0  0  0
    2.5098   -0.5199   -2.2412 H   0  0  0  0  0  0  0  0  0  0  0  0
    2.5833    0.2026   -0.6162 H   0  0  0  0  0  0  0  0  0  0  0  0
    4.5309   -1.6443   -0.8578 H   0  0  0  0  0  0  0  0  0  0  0  0
    3.8763   -3.6376    1.0329 H   0  0  0  0  0  0  0  0  0  0  0  0
    3.8028   -4.3602   -0.5921 H   0  0  0  0  0  0  0  0  0  0  0  0
    5.3896   -5.5489    1.0718 H   0  0  0  0  0  0  0  0  0  0  0  0
    6.4317   -5.7315   -0.3791 H   0  0  0  0  0  0  0  0  0  0  0  0
    7.5619   -5.5503    2.1107 H   0  0  0  0  0  0  0  0  0  0  0  0
    8.3255   -4.7174    0.7137 H   0  0  0  0  0  0  0  0  0  0  0  0
    6.4098   -3.5630    2.8136 H   0  0  0  0  0  0  0  0  0  0  0  0
    7.9476   -2.8697    2.2159 H   0  0  0  0  0  0  0  0  0  0  0  0
   -2.1483    1.2113   -2.5784 H   0  0  0  0  0  0  0  0  0  0  0  0
   -2.3611    3.2527   -3.9375 H   0  0  0  0  0  0  0  0  0  0  0  0
   -2.7337    4.2807   -5.7234 H   0  0  0  0  0  0  0  0  0  0  0  0
   -1.7884    5.1831   -4.5149 H   0  0  0  0  0  0  0  0  0  0  0  0
   -1.7875    5.7054   -6.2165 H   0  0  0  0  0  0  0  0  0  0  0  0
    2.3325    2.9313   -5.8525 H   0  0  0  0  0  0  0  0  0  0  0  0
    1.9541    1.4055   -6.6874 H   0  0  0  0  0  0  0  0  0  0  0  0
    1.0746    2.8939   -7.1113 H   0  0  0  0  0  0  0  0  0  0  0  0
    1.4512    0.2086   -4.6351 H   0  0  0  0  0  0  0  0  0  0  0  0
  1  2  1  0
  1 27  1  6
  1 28  1  0
  1 29  1  0
  2  3  1  0
  2 30  1  1
  2 31  1  0
  3  4  1  0
 15  3  1  1
  4  5  1  0
  4 32  1  6
  4 33  1  0
  5  6  2  0
  5  7  1  0
  7  8  1  0
  7 34  1  0
  8  9  1  0
  8 35  1  1
  8 36  1  0
  9 10  1  6
  9 14  1  0
  9 11  1  0
 11 12  1  0
 11 37  1  1
 11 38  1  0
 12 13  1  0
 12 39  1  1
 12 40  1  0
 13 14  1  0
 13 41  1  1
 13 42  1  0
 15 16  2  0
 15 17  2  0
 15 18  1  0
 18 26  2  0
 18 19  1  0
 19 20  2  0
 19 43  1  0
 20 21  1  0
 20 44  1  0
 21 22  1  0
 21 24  2  0
 22 23  1  0
 23 45  1  1
 23 46  1  0
 23 47  1  0
 24 25  1  0
 24 26  1  0
 25 48  1  1
 25 49  1  0
 25 50  1  0
 26 51  1  0
M  END
$$$$
