ZINC000012747667
     RDKit          3D

 66 70  0  0  1  0  0  0  0  0999 V2000
    0.8827    1.2035   -0.3256 C   0  0  1  0  0  0  0  0  0  0  0  0
    0.0021   -0.0041    0.0020 C   0  0  2  0  0  0  0  0  0  0  0  0
   -1.0337    0.3191    0.1058 H   0  0  0  0  0  0  0  0  0  0  0  0
    0.4653   -0.6281    1.2932 C   0  0  0  0  0  0  0  0  0  0  0  0
    1.2740   -1.5318    1.2740 O   0  0  0  0  0  0  0  0  0  0  0  0
   -0.0190   -0.1820    2.4691 N   0  0  0  0  0  0  0  0  0  0  0  0
    0.4314   -0.7886    3.7243 C   0  0  1  0  0  0  0  0  0  0  0  0
    1.9457   -0.6169    3.8592 C   0  0  1  0  0  0  0  0  0  0  0  0
    2.4160   -1.2505    5.1700 C   0  0  2  0  0  0  0  0  0  0  0  0
    2.0698   -2.7408    5.1692 C   0  0  1  0  0  0  0  0  0  0  0  0
    0.5554   -2.9125    5.0343 C   0  0  1  0  0  0  0  0  0  0  0  0
   -0.1423   -2.2274    6.2110 C   0  0  1  0  0  0  0  0  0  0  0  0
    0.2039   -0.7371    6.2118 C   0  0  1  0  0  0  0  0  0  0  0  0
    1.7183   -0.5654    6.3467 C   0  0  1  0  0  0  0  0  0  0  0  0
   -0.2664   -0.1035    4.9010 C   0  0  1  0  0  0  0  0  0  0  0  0
    0.0851   -2.2789    3.7234 C   0  0  1  0  0  0  0  0  0  0  0  0
    0.1010   -0.9907   -1.0819 N   0  0  0  0  0  0  0  0  0  0  0  0
   -0.1760   -0.3710   -2.3847 C   0  0  1  0  0  0  0  0  0  0  0  0
    0.1129   -1.3822   -3.4992 C   0  0  1  0  0  0  0  0  0  0  0  0
   -0.6443   -2.6122   -3.2220 N   0  0  0  0  0  0  0  0  0  0  0  0
   -1.6064   -3.2979   -4.3824 S   0  0  1  0  0  0  0  0  0  0  0  0
   -2.5763   -4.0740   -3.6924 O   0  0  0  0  0  0  0  0  0  0  0  0
   -1.9453   -2.2573   -5.2889 O   0  0  0  0  0  0  0  0  0  0  0  0
   -0.6070   -4.4361   -5.2827 C   0  0  0  0  0  0  0  0  0  0  0  0
    0.0916   -4.0111   -6.3972 C   0  0  0  0  0  0  0  0  0  0  0  0
    0.8757   -4.9041   -7.1035 C   0  0  0  0  0  0  0  0  0  0  0  0
    0.9613   -6.2219   -6.6950 C   0  0  0  0  0  0  0  0  0  0  0  0
    1.8156   -7.1955   -7.4652 C   0  0  1  0  0  0  0  0  0  0  0  0
    3.1129   -7.1934   -6.9415 F   0  0  0  0  0  0  0  0  0  0  0  0
    1.2714   -8.4799   -7.3578 F   0  0  0  0  0  0  0  0  0  0  0  0
    1.8557   -6.8171   -8.8115 F   0  0  0  0  0  0  0  0  0  0  0  0
    0.2637   -6.6466   -5.5797 C   0  0  0  0  0  0  0  0  0  0  0  0
   -0.5173   -5.7527   -4.8712 C   0  0  0  0  0  0  0  0  0  0  0  0
   -0.5240   -3.2174   -1.8869 C   0  0  1  0  0  0  0  0  0  0  0  0
   -0.7879   -2.1340   -0.8358 C   0  0  1  0  0  0  0  0  0  0  0  0
    1.9185    0.8803   -0.4293 H   0  0  0  0  0  0  0  0  0  0  0  0
    0.5476    1.6548   -1.2594 H   0  0  0  0  0  0  0  0  0  0  0  0
    0.8093    1.9355    0.4787 H   0  0  0  0  0  0  0  0  0  0  0  0
   -0.6657    0.5408    2.4844 H   0  0  0  0  0  0  0  0  0  0  0  0
    2.4428   -1.1050    3.0208 H   0  0  0  0  0  0  0  0  0  0  0  0
    2.1924    0.4448    3.8597 H   0  0  0  0  0  0  0  0  0  0  0  0
    3.4949   -1.1282    5.2661 H   0  0  0  0  0  0  0  0  0  0  0  0
    2.5669   -3.2288    4.3309 H   0  0  0  0  0  0  0  0  0  0  0  0
    2.4048   -3.1921    6.1031 H   0  0  0  0  0  0  0  0  0  0  0  0
    0.3088   -3.9742    5.0337 H   0  0  0  0  0  0  0  0  0  0  0  0
   -1.2212   -2.3497    6.1149 H   0  0  0  0  0  0  0  0  0  0  0  0
    0.1927   -2.6788    7.1449 H   0  0  0  0  0  0  0  0  0  0  0  0
   -0.2932   -0.2490    7.0501 H   0  0  0  0  0  0  0  0  0  0  0  0
    2.0533   -1.0168    7.2806 H   0  0  0  0  0  0  0  0  0  0  0  0
    1.9649    0.4963    6.3473 H   0  0  0  0  0  0  0  0  0  0  0  0
   -0.0197    0.9582    4.9016 H   0  0  0  0  0  0  0  0  0  0  0  0
   -1.3453   -0.2258    4.8049 H   0  0  0  0  0  0  0  0  0  0  0  0
   -0.9937   -2.4012    3.6273 H   0  0  0  0  0  0  0  0  0  0  0  0
    0.5822   -2.7670    2.8851 H   0  0  0  0  0  0  0  0  0  0  0  0
   -1.2227   -0.0700   -2.4290 H   0  0  0  0  0  0  0  0  0  0  0  0
    0.4604    0.5044   -2.5138 H   0  0  0  0  0  0  0  0  0  0  0  0
   -0.1987   -0.9688   -4.4585 H   0  0  0  0  0  0  0  0  0  0  0  0
    1.1794   -1.6062   -3.5229 H   0  0  0  0  0  0  0  0  0  0  0  0
    0.0247   -2.9815   -6.7163 H   0  0  0  0  0  0  0  0  0  0  0  0
    1.4210   -4.5722   -7.9746 H   0  0  0  0  0  0  0  0  0  0  0  0
    0.3309   -7.6761   -5.2603 H   0  0  0  0  0  0  0  0  0  0  0  0
   -1.0623   -6.0845   -3.9998 H   0  0  0  0  0  0  0  0  0  0  0  0
   -1.2567   -4.0173   -1.7801 H   0  0  0  0  0  0  0  0  0  0  0  0
    0.4812   -3.6179   -1.7556 H   0  0  0  0  0  0  0  0  0  0  0  0
   -0.5952   -2.5372    0.1584 H   0  0  0  0  0  0  0  0  0  0  0  0
   -1.8260   -1.8084   -0.9017 H   0  0  0  0  0  0  0  0  0  0  0  0
  1  2  1  0
  1 36  1  6
  1 37  1  0
  1 38  1  0
  2  3  1  1
  2  4  1  0
  2 17  1  0
  4  5  2  0
  4  6  1  0
  6 39  1  0
  7  6  1  6
  7 15  1  0
  7 16  1  0
  7  8  1  0
  8  9  1  0
  8 40  1  6
  8 41  1  0
  9 14  1  0
  9 10  1  0
  9 42  1  1
 10 11  1  0
 10 43  1  6
 10 44  1  0
 11 12  1  0
 11 16  1  0
 11 45  1  6
 12 13  1  0
 12 46  1  6
 12 47  1  0
 13 14  1  0
 13 15  1  0
 13 48  1  1
 14 49  1  1
 14 50  1  0
 15 51  1  1
 15 52  1  0
 16 53  1  6
 16 54  1  0
 17 35  1  0
 17 18  1  0
 18 19  1  0
 18 55  1  1
 18 56  1  0
 19 20  1  0
 19 57  1  6
 19 58  1  0
 21 20  1  1
 20 34  1  0
 21 22  2  0
 21 23  2  0
 21 24  1  0
 24 33  2  0
 24 25  1  0
 25 26  2  0
 25 59  1  0
 26 27  1  0
 26 60  1  0
 27 28  1  0
 27 32  2  0
 28 29  1  1
 28 30  1  0
 28 31  1  0
 32 33  1  0
 32 61  1  0
 33 62  1  0
 34 35  1  0
 34 63  1  6
 34 64  1  0
 35 65  1  1
 35 66  1  0
M  END
$$$$
