ZINC000004985930
     RDKit          3D

 47 49  0  0  1  0  0  0  0  0999 V2000
    0.1250    1.5013    0.0288 C   0  0  1  0  0  0  0  0  0  0  0  0
   -0.0093   -0.0226    0.0060 C   0  0  1  0  0  0  0  0  0  0  0  0
   -1.0623   -0.2990    0.0599 H   0  0  0  0  0  0  0  0  0  0  0  0
    0.5787   -0.5526   -1.2319 N   0  0  0  0  0  0  0  0  0  0  0  0
    0.0172   -0.5551   -2.4571 C   0  0  0  0  0  0  0  0  0  0  0  0
    0.6338   -0.9968   -3.4075 O   0  0  0  0  0  0  0  0  0  0  0  0
   -1.2276   -0.0681   -2.6289 N   0  0  0  0  0  0  0  0  0  0  0  0
   -1.9172    0.6482   -1.5441 C   0  0  1  0  0  0  0  0  0  0  0  0
   -2.4490    1.9736   -2.1015 C   0  0  1  0  0  0  0  0  0  0  0  0
   -3.2164    1.7147   -3.2795 O   0  0  0  0  0  0  0  0  0  0  0  0
   -2.4680    1.1320   -4.3492 C   0  0  1  0  0  0  0  0  0  0  0  0
   -1.9350   -0.2315   -3.9089 C   0  0  1  0  0  0  0  0  0  0  0  0
    1.9065   -1.0816   -0.8656 C   0  0  1  0  0  0  0  0  0  0  0  0
    1.7534   -1.4901    0.6129 C   0  0  1  0  0  0  0  0  0  0  0  0
    0.7124   -0.5996    1.1471 N   0  0  0  0  0  0  0  0  0  0  0  0
    0.4064   -0.3016    2.7471 S   0  0  1  0  0  0  0  0  0  0  0  0
   -0.9458    0.1283    2.8238 O   0  0  0  0  0  0  0  0  0  0  0  0
    0.9087   -1.4192    3.4667 O   0  0  0  0  0  0  0  0  0  0  0  0
    1.3947    1.0788    3.2188 C   0  0  0  0  0  0  0  0  0  0  0  0
    2.6725    0.8794    3.7063 C   0  0  0  0  0  0  0  0  0  0  0  0
    3.4480    1.9625    4.0764 C   0  0  0  0  0  0  0  0  0  0  0  0
    2.9456    3.2447    3.9584 C   0  0  0  0  0  0  0  0  0  0  0  0
    1.6678    3.4442    3.4699 C   0  0  0  0  0  0  0  0  0  0  0  0
    1.1198    4.8422    3.3416 C   0  0  1  0  0  0  0  0  0  0  0  0
    2.0811    5.7615    3.7754 F   0  0  0  0  0  0  0  0  0  0  0  0
    0.8010    5.0972    2.0035 F   0  0  0  0  0  0  0  0  0  0  0  0
   -0.0314    4.9657    4.1270 F   0  0  0  0  0  0  0  0  0  0  0  0
    0.8941    2.3617    3.0958 C   0  0  0  0  0  0  0  0  0  0  0  0
    1.1677    1.7717    0.1956 H   0  0  0  0  0  0  0  0  0  0  0  0
   -0.2081    1.9097   -0.9254 H   0  0  0  0  0  0  0  0  0  0  0  0
   -0.4889    1.9082    0.8323 H   0  0  0  0  0  0  0  0  0  0  0  0
   -2.7473    0.0454   -1.1758 H   0  0  0  0  0  0  0  0  0  0  0  0
   -1.2176    0.8459   -0.7320 H   0  0  0  0  0  0  0  0  0  0  0  0
   -3.0799    2.4556   -1.3546 H   0  0  0  0  0  0  0  0  0  0  0  0
   -1.6120    2.6267   -2.3484 H   0  0  0  0  0  0  0  0  0  0  0  0
   -3.1126    1.0086   -5.2195 H   0  0  0  0  0  0  0  0  0  0  0  0
   -1.6311    1.7821   -4.6044 H   0  0  0  0  0  0  0  0  0  0  0  0
   -1.2490   -0.6183   -4.6624 H   0  0  0  0  0  0  0  0  0  0  0  0
   -2.7654   -0.9251   -3.7771 H   0  0  0  0  0  0  0  0  0  0  0  0
    2.1540   -1.9490   -1.4776 H   0  0  0  0  0  0  0  0  0  0  0  0
    2.6678   -0.3088   -0.9713 H   0  0  0  0  0  0  0  0  0  0  0  0
    1.4379   -2.5308    0.6877 H   0  0  0  0  0  0  0  0  0  0  0  0
    2.6916   -1.3387    1.1468 H   0  0  0  0  0  0  0  0  0  0  0  0
    3.0651   -0.1225    3.7986 H   0  0  0  0  0  0  0  0  0  0  0  0
    4.4463    1.8067    4.4581 H   0  0  0  0  0  0  0  0  0  0  0  0
    3.5512    4.0907    4.2482 H   0  0  0  0  0  0  0  0  0  0  0  0
   -0.1041    2.5175    2.7142 H   0  0  0  0  0  0  0  0  0  0  0  0
  1  2  1  0
  1 29  1  1
  1 30  1  0
  1 31  1  0
  2  3  1  1
  2 15  1  0
  2  4  1  0
  4  5  1  0
  4 13  1  0
  5  6  2  0
  5  7  1  0
  7 12  1  0
  7  8  1  0
  8  9  1  0
  8 32  1  1
  8 33  1  0
  9 10  1  0
  9 34  1  1
  9 35  1  0
 10 11  1  0
 11 12  1  0
 11 36  1  6
 11 37  1  0
 12 38  1  6
 12 39  1  0
 13 14  1  0
 13 40  1  6
 13 41  1  0
 14 15  1  0
 14 42  1  6
 14 43  1  0
 16 15  1  6
 16 17  2  0
 16 18  2  0
 16 19  1  0
 19 28  2  0
 19 20  1  0
 20 21  2  0
 20 44  1  0
 21 22  1  0
 21 45  1  0
 22 23  2  0
 22 46  1  0
 23 24  1  0
 23 28  1  0
 24 25  1  1
 24 26  1  0
 24 27  1  0
 28 47  1  0
M  END
$$$$
