ZINC000000792898
     RDKit          3D

 62 64  0  0  1  0  0  0  0  0999 V2000
   -0.0173    1.4248    0.0099 C   0  0  1  0  0  0  0  0  0  0  0  0
    0.0021   -0.0041    0.0020 O   0  0  0  0  0  0  0  0  0  0  0  0
    0.6262   -0.6188    1.0422 C   0  0  0  0  0  0  0  0  0  0  0  0
    1.2019    0.1365    2.0506 C   0  0  0  0  0  0  0  0  0  0  0  0
    1.8358   -0.4901    3.1079 C   0  0  0  0  0  0  0  0  0  0  0  0
    1.8971   -1.8698    3.1612 C   0  0  0  0  0  0  0  0  0  0  0  0
    2.7068   -2.6623    4.5107 S   0  0  1  0  0  0  0  0  0  0  0  0
    3.0940   -3.9485    4.0470 O   0  0  0  0  0  0  0  0  0  0  0  0
    3.6271   -1.7166    5.0378 O   0  0  0  0  0  0  0  0  0  0  0  0
    1.5682   -2.9124    5.6869 N   0  0  0  0  0  0  0  0  0  0  0  0
    0.7940   -4.1560    5.7043 C   0  0  1  0  0  0  0  0  0  0  0  0
    1.4605   -5.1586    6.6485 C   0  0  1  0  0  0  0  0  0  0  0  0
    0.6640   -6.4378    6.6664 C   0  0  0  0  0  0  0  0  0  0  0  0
   -0.3603   -6.6015    7.5801 C   0  0  0  0  0  0  0  0  0  0  0  0
   -1.0908   -7.7749    7.5965 C   0  0  0  0  0  0  0  0  0  0  0  0
   -0.7974   -8.7844    6.6989 C   0  0  0  0  0  0  0  0  0  0  0  0
    0.2263   -8.6203    5.7846 C   0  0  0  0  0  0  0  0  0  0  0  0
    0.9541   -7.4452    5.7653 C   0  0  0  0  0  0  0  0  0  0  0  0
    1.3352   -1.8902    6.7101 C   0  0  1  0  0  0  0  0  0  0  0  0
    0.1860   -1.0109    6.2892 C   0  0  0  0  0  0  0  0  0  0  0  0
   -0.3825   -1.2179    5.2380 O   0  0  0  0  0  0  0  0  0  0  0  0
   -0.2101    0.0053    7.0809 N   0  0  0  0  0  0  0  0  0  0  0  0
   -1.3274    0.8600    6.6717 C   0  0  1  0  0  0  0  0  0  0  0  0
   -1.5707    1.9277    7.7403 C   0  0  1  0  0  0  0  0  0  0  0  0
   -0.6762    2.5351    7.8779 H   0  0  0  0  0  0  0  0  0  0  0  0
   -2.7722    2.8219    7.3432 C   0  0  1  0  0  0  0  0  0  0  0  0
   -3.2325    3.3326    8.7358 C   0  0  1  0  0  0  0  0  0  0  0  0
   -2.9338    2.1206    9.6443 C   0  0  1  0  0  0  0  0  0  0  0  0
   -1.9519    1.3131    8.9814 O   0  0  0  0  0  0  0  0  0  0  0  0
    1.3241   -2.6298    2.1580 C   0  0  0  0  0  0  0  0  0  0  0  0
    0.6830   -2.0084    1.0988 C   0  0  0  0  0  0  0  0  0  0  0  0
    0.1189   -2.7543    0.1114 O   0  0  0  0  0  0  0  0  0  0  0  0
    0.2250   -4.1744    0.2301 C   0  0  1  0  0  0  0  0  0  0  0  0
    1.0053    1.8021    0.0021 H   0  0  0  0  0  0  0  0  0  0  0  0
   -0.5445    1.7859   -0.8732 H   0  0  0  0  0  0  0  0  0  0  0  0
   -0.5275    1.7763    0.9067 H   0  0  0  0  0  0  0  0  0  0  0  0
    1.1560    1.2148    2.0110 H   0  0  0  0  0  0  0  0  0  0  0  0
    2.2843    0.0999    3.8935 H   0  0  0  0  0  0  0  0  0  0  0  0
   -0.2186   -3.9488    6.0504 H   0  0  0  0  0  0  0  0  0  0  0  0
    0.7557   -4.5743    4.6985 H   0  0  0  0  0  0  0  0  0  0  0  0
    2.4731   -5.3658    6.3024 H   0  0  0  0  0  0  0  0  0  0  0  0
    1.4987   -4.7403    7.6543 H   0  0  0  0  0  0  0  0  0  0  0  0
   -0.5895   -5.8129    8.2814 H   0  0  0  0  0  0  0  0  0  0  0  0
   -1.8906   -7.9032    8.3109 H   0  0  0  0  0  0  0  0  0  0  0  0
   -1.3677   -9.7015    6.7122 H   0  0  0  0  0  0  0  0  0  0  0  0
    0.4558   -9.4091    5.0835 H   0  0  0  0  0  0  0  0  0  0  0  0
    1.7539   -7.3170    5.0510 H   0  0  0  0  0  0  0  0  0  0  0  0
    1.0956   -2.3725    7.6577 H   0  0  0  0  0  0  0  0  0  0  0  0
    2.2328   -1.2831    6.8282 H   0  0  0  0  0  0  0  0  0  0  0  0
    0.2445    0.1708    7.9216 H   0  0  0  0  0  0  0  0  0  0  0  0
   -1.0878    1.3424    5.7241 H   0  0  0  0  0  0  0  0  0  0  0  0
   -2.2250    0.2530    6.5536 H   0  0  0  0  0  0  0  0  0  0  0  0
   -2.4538    3.6481    6.7075 H   0  0  0  0  0  0  0  0  0  0  0  0
   -3.5551    2.2366    6.8610 H   0  0  0  0  0  0  0  0  0  0  0  0
   -2.6493    4.2007    9.0429 H   0  0  0  0  0  0  0  0  0  0  0  0
   -4.2982    3.5614    8.7323 H   0  0  0  0  0  0  0  0  0  0  0  0
   -2.5427    2.4639   10.6021 H   0  0  0  0  0  0  0  0  0  0  0  0
   -3.8445    1.5427    9.8012 H   0  0  0  0  0  0  0  0  0  0  0  0
    1.3734   -3.7078    2.2020 H   0  0  0  0  0  0  0  0  0  0  0  0
   -0.2653   -4.6477   -0.6207 H   0  0  0  0  0  0  0  0  0  0  0  0
    1.2767   -4.4600    0.2483 H   0  0  0  0  0  0  0  0  0  0  0  0
   -0.2556   -4.4988    1.1530 H   0  0  0  0  0  0  0  0  0  0  0  0
  1  2  1  0
  1 34  1  6
  1 35  1  0
  1 36  1  0
  2  3  1  0
  3 31  2  0
  3  4  1  0
  4  5  2  0
  4 37  1  0
  5  6  1  0
  5 38  1  0
  6  7  1  0
  6 30  2  0
  7  8  2  0
  7  9  2  0
  7 10  1  1
 10 11  1  0
 10 19  1  0
 11 12  1  0
 11 39  1  1
 11 40  1  0
 12 13  1  0
 12 41  1  6
 12 42  1  0
 13 18  2  0
 13 14  1  0
 14 15  2  0
 14 43  1  0
 15 16  1  0
 15 44  1  0
 16 17  2  0
 16 45  1  0
 17 18  1  0
 17 46  1  0
 18 47  1  0
 19 20  1  0
 19 48  1  1
 19 49  1  0
 20 21  2  0
 20 22  1  0
 22 23  1  0
 22 50  1  0
 23 24  1  0
 23 51  1  6
 23 52  1  0
 24 25  1  1
 24 29  1  0
 24 26  1  0
 26 27  1  0
 26 53  1  6
 26 54  1  0
 27 28  1  0
 27 55  1  1
 27 56  1  0
 28 29  1  0
 28 57  1  1
 28 58  1  0
 30 31  1  0
 30 59  1  0
 31 32  1  0
 32 33  1  0
 33 60  1  6
 33 61  1  0
 33 62  1  0
M  END
$$$$
