ZINC000015512300
     RDKit          3D

 44 46  0  0  1  0  0  0  0  0999 V2000
    0.0315    0.0063   -0.3235 O   0  0  0  0  0  0  0  0  0  0  0  0
   -0.0024    1.2076   -0.1604 C   0  0  0  0  0  0  0  0  0  0  0  0
    1.1435    1.8984    0.0013 N   0  0  0  0  0  0  0  0  0  0  0  0
    2.3633    1.2187    0.0917 C   0  0  0  0  0  0  0  0  0  0  0  0
    3.5210    1.7969   -0.4122 C   0  0  0  0  0  0  0  0  0  0  0  0
    4.7234    1.1235   -0.3215 C   0  0  0  0  0  0  0  0  0  0  0  0
    4.7751   -0.1255    0.2698 C   0  0  0  0  0  0  0  0  0  0  0  0
    6.0887   -0.8577    0.3666 C   0  0  1  0  0  0  0  0  0  0  0  0
    6.7231   -0.5207    1.5670 F   0  0  0  0  0  0  0  0  0  0  0  0
    5.8574   -2.2370    0.3326 F   0  0  0  0  0  0  0  0  0  0  0  0
    6.9052   -0.4951   -0.7101 F   0  0  0  0  0  0  0  0  0  0  0  0
    3.6242   -0.7038    0.7728 C   0  0  0  0  0  0  0  0  0  0  0  0
    2.4197   -0.0330    0.6904 C   0  0  0  0  0  0  0  0  0  0  0  0
   -1.3255    1.9289   -0.1446 C   0  0  2  0  0  0  0  0  0  0  0  0
   -1.3475    2.6801   -0.9341 H   0  0  0  0  0  0  0  0  0  0  0  0
   -1.5398    2.6026    1.2271 C   0  0  1  0  0  0  0  0  0  0  0  0
   -3.0553    2.3925    1.4846 C   0  0  1  0  0  0  0  0  0  0  0  0
   -3.2861    0.9942    0.8592 C   0  0  1  0  0  0  0  0  0  0  0  0
   -2.4212    0.9678   -0.3384 N   0  0  0  0  0  0  0  0  0  0  0  0
   -2.6487    0.0133   -1.6723 S   0  0  1  0  0  0  0  0  0  0  0  0
   -1.3771   -0.1189   -2.2927 O   0  0  0  0  0  0  0  0  0  0  0  0
   -3.4234   -1.0980   -1.2432 O   0  0  0  0  0  0  0  0  0  0  0  0
   -3.6587    0.9197   -2.7961 C   0  0  0  0  0  0  0  0  0  0  0  0
   -5.0353    0.8103   -2.7300 C   0  0  0  0  0  0  0  0  0  0  0  0
   -5.8285    1.5207   -3.6109 C   0  0  0  0  0  0  0  0  0  0  0  0
   -5.2441    2.3426   -4.5596 C   0  0  0  0  0  0  0  0  0  0  0  0
   -6.0186    3.0379   -5.4210 F   0  0  0  0  0  0  0  0  0  0  0  0
   -3.8653    2.4518   -4.6245 C   0  0  0  0  0  0  0  0  0  0  0  0
   -3.0743    1.7441   -3.7395 C   0  0  0  0  0  0  0  0  0  0  0  0
    1.1227    2.8667    0.0551 H   0  0  0  0  0  0  0  0  0  0  0  0
    3.4811    2.7721   -0.8747 H   0  0  0  0  0  0  0  0  0  0  0  0
    5.6241    1.5726   -0.7131 H   0  0  0  0  0  0  0  0  0  0  0  0
    3.6679   -1.6794    1.2340 H   0  0  0  0  0  0  0  0  0  0  0  0
    1.5211   -0.4852    1.0835 H   0  0  0  0  0  0  0  0  0  0  0  0
   -0.9458    2.1089    1.9962 H   0  0  0  0  0  0  0  0  0  0  0  0
   -1.3008    3.6649    1.1765 H   0  0  0  0  0  0  0  0  0  0  0  0
   -3.2726    2.3835    2.5527 H   0  0  0  0  0  0  0  0  0  0  0  0
   -3.6474    3.1517    0.9735 H   0  0  0  0  0  0  0  0  0  0  0  0
   -2.9911    0.2123    1.5590 H   0  0  0  0  0  0  0  0  0  0  0  0
   -4.3311    0.8742    0.5734 H   0  0  0  0  0  0  0  0  0  0  0  0
   -5.4909    0.1691   -1.9900 H   0  0  0  0  0  0  0  0  0  0  0  0
   -6.9038    1.4345   -3.5596 H   0  0  0  0  0  0  0  0  0  0  0  0
   -3.4084    3.0923   -5.3643 H   0  0  0  0  0  0  0  0  0  0  0  0
   -1.9988    1.8293   -3.7897 H   0  0  0  0  0  0  0  0  0  0  0  0
  1  2  2  0
  2  3  1  0
  2 14  1  0
  3  4  1  0
  3 30  1  0
  4 13  2  0
  4  5  1  0
  5  6  2  0
  5 31  1  0
  6  7  1  0
  6 32  1  0
  7  8  1  0
  7 12  2  0
  8  9  1  1
  8 10  1  0
  8 11  1  0
 12 13  1  0
 12 33  1  0
 13 34  1  0
 14 15  1  6
 14 19  1  0
 14 16  1  0
 16 17  1  0
 16 35  1  1
 16 36  1  0
 17 18  1  0
 17 37  1  1
 17 38  1  0
 18 19  1  0
 18 39  1  1
 18 40  1  0
 20 19  1  1
 20 21  2  0
 20 22  2  0
 20 23  1  0
 23 29  2  0
 23 24  1  0
 24 25  2  0
 24 41  1  0
 25 26  1  0
 25 42  1  0
 26 27  1  0
 26 28  2  0
 28 29  1  0
 28 43  1  0
 29 44  1  0
M  END
$$$$
