ZINC000016652612
     RDKit          3D

 38 39  0  0  0  0  0  0  0  0999 V2000
   -0.0178    1.4608    0.0101 C   0  0  1  0  0  0  0  0  0  0  0  0
    0.0021   -0.0041    0.0020 N   0  0  0  0  0  0  0  0  0  0  0  0
    0.0241   -0.7433    1.2666 C   0  0  1  0  0  0  0  0  0  0  0  0
   -0.0004   -0.8243   -1.4366 S   0  0  1  0  0  0  0  0  0  0  0  0
   -0.5247   -2.1160   -1.1611 O   0  0  0  0  0  0  0  0  0  0  0  0
   -0.5660    0.0551   -2.3989 O   0  0  0  0  0  0  0  0  0  0  0  0
    1.6816   -1.0597   -1.9056 C   0  0  0  0  0  0  0  0  0  0  0  0
    2.3224   -0.1085   -2.6779 C   0  0  0  0  0  0  0  0  0  0  0  0
    3.6411   -0.2907   -3.0469 C   0  0  0  0  0  0  0  0  0  0  0  0
    4.3226   -1.4291   -2.6417 C   0  0  0  0  0  0  0  0  0  0  0  0
    5.6201   -1.6105   -3.0031 O   0  0  0  0  0  0  0  0  0  0  0  0
    6.2587   -2.8058   -2.5500 C   0  0  1  0  0  0  0  0  0  0  0  0
    7.6821   -2.8332   -3.0443 C   0  0  0  0  0  0  0  0  0  0  0  0
    8.1077   -1.9191   -3.7182 O   0  0  0  0  0  0  0  0  0  0  0  0
    8.4821   -3.8735   -2.7374 N   0  0  0  0  0  0  0  0  0  0  0  0
    9.8658   -3.9002   -3.2179 C   0  0  1  0  0  0  0  0  0  0  0  0
   10.9489   -4.3354   -2.2288 C   0  0  1  0  0  0  0  0  0  0  0  0
   10.5349   -5.2678   -3.3690 C   0  0  1  0  0  0  0  0  0  0  0  0
    3.6776   -2.3818   -1.8665 C   0  0  0  0  0  0  0  0  0  0  0  0
    2.3603   -2.1926   -1.4960 C   0  0  0  0  0  0  0  0  0  0  0  0
    1.0048    1.8381    0.0023 H   0  0  0  0  0  0  0  0  0  0  0  0
   -0.5450    1.8219   -0.8730 H   0  0  0  0  0  0  0  0  0  0  0  0
   -0.5280    1.8123    0.9069 H   0  0  0  0  0  0  0  0  0  0  0  0
   -0.9979   -0.9406    1.5900 H   0  0  0  0  0  0  0  0  0  0  0  0
    0.5496   -1.6879    1.1262 H   0  0  0  0  0  0  0  0  0  0  0  0
    0.5371   -0.1514    2.0246 H   0  0  0  0  0  0  0  0  0  0  0  0
    1.7914    0.7776   -2.9931 H   0  0  0  0  0  0  0  0  0  0  0  0
    4.1409    0.4522   -3.6507 H   0  0  0  0  0  0  0  0  0  0  0  0
    6.2520   -2.8307   -1.4603 H   0  0  0  0  0  0  0  0  0  0  0  0
    5.7231   -3.6729   -2.9365 H   0  0  0  0  0  0  0  0  0  0  0  0
    8.1417   -4.6046   -2.1984 H   0  0  0  0  0  0  0  0  0  0  0  0
   10.1265   -3.1295   -3.9433 H   0  0  0  0  0  0  0  0  0  0  0  0
   11.9224   -3.8508   -2.3032 H   0  0  0  0  0  0  0  0  0  0  0  0
   10.6320   -4.6019   -1.2205 H   0  0  0  0  0  0  0  0  0  0  0  0
    9.9457   -6.1477   -3.1109 H   0  0  0  0  0  0  0  0  0  0  0  0
   11.2361   -5.3967   -4.1935 H   0  0  0  0  0  0  0  0  0  0  0  0
    4.2059   -3.2690   -1.5500 H   0  0  0  0  0  0  0  0  0  0  0  0
    1.8578   -2.9338   -0.8923 H   0  0  0  0  0  0  0  0  0  0  0  0
  1  2  1  0
  1 21  1  6
  1 22  1  0
  1 23  1  0
  2  3  1  0
  4  2  1  1
  3 24  1  1
  3 25  1  0
  3 26  1  0
  4  5  2  0
  4  6  2  0
  4  7  1  0
  7 20  2  0
  7  8  1  0
  8  9  2  0
  8 27  1  0
  9 10  1  0
  9 28  1  0
 10 11  1  0
 10 19  2  0
 11 12  1  0
 12 13  1  0
 12 29  1  1
 12 30  1  0
 13 14  2  0
 13 15  1  0
 15 16  1  0
 15 31  1  0
 16 18  1  0
 16 17  1  0
 16 32  1  6
 17 18  1  0
 17 33  1  1
 17 34  1  0
 18 35  1  1
 18 36  1  0
 19 20  1  0
 19 37  1  0
 20 38  1  0
M  END
$$$$
