ZINC000019477664
     RDKit          3D

 26 26  0  0  1  0  0  0  0  0999 V2000
   -0.0187    1.5258    0.0104 C   0  0  1  0  0  0  0  0  0  0  0  0
    0.0021   -0.0041    0.0020 C   0  0  1  0  0  0  0  0  0  0  0  0
    0.7126   -0.4907    1.1921 N   0  0  1  0  0  0  0  0  0  0  0  0
    0.2403   -0.1653    2.0223 H   0  0  0  0  0  0  0  0  0  0  0  0
    0.7262   -1.4996    1.1866 H   0  0  0  0  0  0  0  0  0  0  0  0
    1.6592   -0.1415    1.1850 H   0  0  0  0  0  0  0  0  0  0  0  0
   -1.4117   -0.5257    0.0127 C   0  0  0  0  0  0  0  0  0  0  0  0
   -2.1751   -0.2365   -0.8929 O   0  0  0  0  0  0  0  0  0  0  0  0
   -1.7922   -1.2369    0.9270 O   0  0  0  0  0  0  0  0  0  0  0  0
    0.7074   -0.4901   -1.2379 C   0  0  0  0  0  0  0  0  0  0  0  0
    0.6712    0.2656   -2.3948 C   0  0  0  0  0  0  0  0  0  0  0  0
    1.3182   -0.1801   -3.5321 C   0  0  0  0  0  0  0  0  0  0  0  0
    2.0019   -1.3814   -3.5124 C   0  0  0  0  0  0  0  0  0  0  0  0
    2.7068   -1.8677   -4.7524 C   0  0  1  0  0  0  0  0  0  0  0  0
    4.0211   -1.3882   -4.7600 F   0  0  0  0  0  0  0  0  0  0  0  0
    2.7208   -3.2666   -4.7627 F   0  0  0  0  0  0  0  0  0  0  0  0
    2.0331   -1.3997   -5.8857 F   0  0  0  0  0  0  0  0  0  0  0  0
    2.0393   -2.1365   -2.3551 C   0  0  0  0  0  0  0  0  0  0  0  0
    1.3955   -1.6888   -1.2166 C   0  0  0  0  0  0  0  0  0  0  0  0
    1.0039    1.9031    0.0027 H   0  0  0  0  0  0  0  0  0  0  0  0
   -0.5459    1.8868   -0.8726 H   0  0  0  0  0  0  0  0  0  0  0  0
   -0.5289    1.8773    0.9072 H   0  0  0  0  0  0  0  0  0  0  0  0
    0.1371    1.2042   -2.4102 H   0  0  0  0  0  0  0  0  0  0  0  0
    1.2893    0.4099   -4.4362 H   0  0  0  0  0  0  0  0  0  0  0  0
    2.5737   -3.0749   -2.3395 H   0  0  0  0  0  0  0  0  0  0  0  0
    1.4247   -2.2787   -0.3124 H   0  0  0  0  0  0  0  0  0  0  0  0
  1 20  1  6
  1 21  1  0
  1 22  1  0
  2  1  1  0
  2  3  1  0
  2  7  1  1
  2 10  1  0
  3  4  1  1
  3  5  1  0
  3  6  1  0
  7  8  2  0
  7  9  1  0
 10 19  2  0
 10 11  1  0
 11 12  2  0
 11 23  1  0
 12 13  1  0
 12 24  1  0
 13 14  1  0
 13 18  2  0
 14 15  1  1
 14 16  1  0
 14 17  1  0
 18 19  1  0
 18 25  1  0
 19 26  1  0
M  CHG  1   3   1
M  END
$$$$
