ZINC000408617621
     RDKit          3D

 53 54  0  0  1  0  0  0  0  0999 V2000
   -0.0173    1.4248    0.0099 C   0  0  1  0  0  0  0  0  0  0  0  0
    0.0021   -0.0041    0.0020 O   0  0  0  0  0  0  0  0  0  0  0  0
    0.6734   -0.5824    1.1231 C   0  0  1  0  0  0  0  0  0  0  0  0
    0.6327   -2.1077    1.0107 C   0  0  1  0  0  0  0  0  0  0  0  0
    1.0656   -2.5499    1.9080 H   0  0  0  0  0  0  0  0  0  0  0  0
   -0.8185   -2.5697    0.8637 C   0  0  1  0  0  0  0  0  0  0  0  0
    1.4013   -2.5316   -0.1622 N   0  0  0  0  0  0  0  0  0  0  0  0
    1.9353   -3.7683   -0.2071 C   0  0  0  0  0  0  0  0  0  0  0  0
    1.7795   -4.5302    0.7236 O   0  0  0  0  0  0  0  0  0  0  0  0
    2.7259   -4.2043   -1.4136 C   0  0  1  0  0  0  0  0  0  0  0  0
    3.1956   -5.5783   -1.2192 N   0  0  0  0  0  0  0  0  0  0  0  0
    2.3234   -6.7055   -1.5582 C   0  0  1  0  0  0  0  0  0  0  0  0
    2.4574   -7.0208   -3.0258 C   0  0  0  0  0  0  0  0  0  0  0  0
    1.6328   -6.3988   -3.9445 C   0  0  0  0  0  0  0  0  0  0  0  0
    1.7558   -6.6880   -5.2906 C   0  0  0  0  0  0  0  0  0  0  0  0
    2.7037   -7.5988   -5.7181 C   0  0  0  0  0  0  0  0  0  0  0  0
    3.5289   -8.2201   -4.7995 C   0  0  0  0  0  0  0  0  0  0  0  0
    3.4088   -7.9277   -3.4538 C   0  0  0  0  0  0  0  0  0  0  0  0
    4.7125   -5.8573   -0.6163 S   0  0  1  0  0  0  0  0  0  0  0  0
    5.0824   -7.1598   -1.0475 O   0  0  0  0  0  0  0  0  0  0  0  0
    5.4789   -4.6961   -0.9051 O   0  0  0  0  0  0  0  0  0  0  0  0
    4.5701   -5.9358    1.1382 C   0  0  0  0  0  0  0  0  0  0  0  0
    4.6985   -4.7857    1.8942 C   0  0  0  0  0  0  0  0  0  0  0  0
    4.5868   -4.8472    3.2707 C   0  0  0  0  0  0  0  0  0  0  0  0
    4.3462   -6.0589    3.8911 C   0  0  0  0  0  0  0  0  0  0  0  0
    4.2249   -6.1261    5.3917 C   0  0  1  0  0  0  0  0  0  0  0  0
    4.2164   -7.2088    3.1349 C   0  0  0  0  0  0  0  0  0  0  0  0
    4.3243   -7.1466    1.7582 C   0  0  0  0  0  0  0  0  0  0  0  0
    1.0053    1.8021    0.0021 H   0  0  0  0  0  0  0  0  0  0  0  0
   -0.5445    1.7859   -0.8732 H   0  0  0  0  0  0  0  0  0  0  0  0
   -0.5275    1.7763    0.9067 H   0  0  0  0  0  0  0  0  0  0  0  0
    1.7103   -0.2468    1.1385 H   0  0  0  0  0  0  0  0  0  0  0  0
    0.1775   -0.2725    2.0430 H   0  0  0  0  0  0  0  0  0  0  0  0
   -1.3904   -2.2544    1.7364 H   0  0  0  0  0  0  0  0  0  0  0  0
   -1.2514   -2.1276   -0.0336 H   0  0  0  0  0  0  0  0  0  0  0  0
   -0.8475   -3.6564    0.7836 H   0  0  0  0  0  0  0  0  0  0  0  0
    1.5259   -1.9223   -0.9066 H   0  0  0  0  0  0  0  0  0  0  0  0
    2.0921   -4.1589   -2.2992 H   0  0  0  0  0  0  0  0  0  0  0  0
    3.5822   -3.5429   -1.5454 H   0  0  0  0  0  0  0  0  0  0  0  0
    2.6120   -7.5775   -0.9714 H   0  0  0  0  0  0  0  0  0  0  0  0
    1.2888   -6.4440   -1.3358 H   0  0  0  0  0  0  0  0  0  0  0  0
    0.8922   -5.6872   -3.6105 H   0  0  0  0  0  0  0  0  0  0  0  0
    1.1110   -6.2026   -6.0083 H   0  0  0  0  0  0  0  0  0  0  0  0
    2.7993   -7.8253   -6.7698 H   0  0  0  0  0  0  0  0  0  0  0  0
    4.2693   -8.9320   -5.1335 H   0  0  0  0  0  0  0  0  0  0  0  0
    4.0536   -8.4131   -2.7361 H   0  0  0  0  0  0  0  0  0  0  0  0
    4.8865   -3.8390    1.4095 H   0  0  0  0  0  0  0  0  0  0  0  0
    4.6879   -3.9488    3.8614 H   0  0  0  0  0  0  0  0  0  0  0  0
    3.1837   -5.9795    5.6789 H   0  0  0  0  0  0  0  0  0  0  0  0
    4.5641   -7.1015    5.7403 H   0  0  0  0  0  0  0  0  0  0  0  0
    4.8391   -5.3459    5.8411 H   0  0  0  0  0  0  0  0  0  0  0  0
    4.0280   -8.1554    3.6196 H   0  0  0  0  0  0  0  0  0  0  0  0
    4.2229   -8.0450    1.1675 H   0  0  0  0  0  0  0  0  0  0  0  0
  1  2  1  0
  1 29  1  6
  1 30  1  0
  1 31  1  0
  2  3  1  0
  3  4  1  0
  3 32  1  1
  3 33  1  0
  4  5  1  1
  4  6  1  0
  4  7  1  0
  6 34  1  1
  6 35  1  0
  6 36  1  0
  7  8  1  0
  7 37  1  0
  8  9  2  0
  8 10  1  0
 10 11  1  0
 10 38  1  6
 10 39  1  0
 11 12  1  0
 19 11  1  6
 12 13  1  0
 12 40  1  1
 12 41  1  0
 13 18  2  0
 13 14  1  0
 14 15  2  0
 14 42  1  0
 15 16  1  0
 15 43  1  0
 16 17  2  0
 16 44  1  0
 17 18  1  0
 17 45  1  0
 18 46  1  0
 19 20  2  0
 19 21  2  0
 19 22  1  0
 22 28  2  0
 22 23  1  0
 23 24  2  0
 23 47  1  0
 24 25  1  0
 24 48  1  0
 25 26  1  0
 25 27  2  0
 26 49  1  6
 26 50  1  0
 26 51  1  0
 27 28  1  0
 27 52  1  0
 28 53  1  0
M  END
$$$$
