ZINC000095432519
     RDKit          3D

 61 63  0  0  1  0  0  0  0  0999 V2000
   -1.2840    3.5545   -0.4430 C   0  0  1  0  0  0  0  0  0  0  0  0
   -0.7579    2.3257    0.3015 C   0  0  1  0  0  0  0  0  0  0  0  0
    0.3924    1.7739   -0.4186 N   0  0  0  0  0  0  0  0  0  0  0  0
    1.7328    2.3162   -0.1831 C   0  0  1  0  0  0  0  0  0  0  0  0
    2.3533    1.6309    1.0360 C   0  0  1  0  0  0  0  0  0  0  0  0
    0.1776    0.5372   -1.4987 S   0  0  1  0  0  0  0  0  0  0  0  0
    1.4286   -0.1292   -1.5998 O   0  0  0  0  0  0  0  0  0  0  0  0
   -1.0249   -0.1199   -1.1224 O   0  0  0  0  0  0  0  0  0  0  0  0
   -0.1261    1.2669   -3.0735 C   0  0  0  0  0  0  0  0  0  0  0  0
   -1.4205    1.5621   -3.4586 C   0  0  0  0  0  0  0  0  0  0  0  0
   -1.6650    2.1348   -4.6933 C   0  0  0  0  0  0  0  0  0  0  0  0
   -0.6116    2.4144   -5.5482 C   0  0  0  0  0  0  0  0  0  0  0  0
   -0.8504    2.9780   -6.7623 O   0  0  0  0  0  0  0  0  0  0  0  0
   -2.1994    3.3512   -7.0503 C   0  0  1  0  0  0  0  0  0  0  0  0
   -2.2051    4.5429   -8.0099 C   0  0  1  0  0  0  0  0  0  0  0  0
   -2.9278    2.1716   -7.6977 C   0  0  1  0  0  0  0  0  0  0  0  0
    0.6933    2.1171   -5.1607 C   0  0  0  0  0  0  0  0  0  0  0  0
    1.7629    2.3981   -6.0211 N   0  0  0  0  0  0  0  0  0  0  0  0
    2.8875    1.6575   -5.9625 C   0  0  0  0  0  0  0  0  0  0  0  0
    2.9990    0.7897   -5.1225 O   0  0  0  0  0  0  0  0  0  0  0  0
    4.0062    1.9076   -6.9408 C   0  0  2  0  0  0  0  0  0  0  0  0
    3.5889    2.0501   -7.9376 H   0  0  0  0  0  0  0  0  0  0  0  0
    4.8842    0.7824   -6.9523 O   0  0  0  0  0  0  0  0  0  0  0  0
    6.0745    1.0050   -7.7169 C   0  0  1  0  0  0  0  0  0  0  0  0
    6.9555    2.0031   -6.9635 C   0  0  1  0  0  0  0  0  0  0  0  0
    6.1341    3.1980   -6.5514 C   0  0  0  0  0  0  0  0  0  0  0  0
    6.7888    4.3623   -6.1835 C   0  0  0  0  0  0  0  0  0  0  0  0
    6.0670    5.4744   -5.7963 C   0  0  0  0  0  0  0  0  0  0  0  0
    4.6858    5.4254   -5.7753 C   0  0  0  0  0  0  0  0  0  0  0  0
    4.0325    4.2658   -6.1437 C   0  0  0  0  0  0  0  0  0  0  0  0
    4.7579    3.1478   -6.5326 C   0  0  0  0  0  0  0  0  0  0  0  0
    0.9312    1.5480   -3.9186 C   0  0  0  0  0  0  0  0  0  0  0  0
   -0.4979    4.3071   -0.5030 H   0  0  0  0  0  0  0  0  0  0  0  0
   -1.5891    3.2667   -1.4491 H   0  0  0  0  0  0  0  0  0  0  0  0
   -2.1399    3.9650    0.0928 H   0  0  0  0  0  0  0  0  0  0  0  0
   -0.4528    2.6134    1.3076 H   0  0  0  0  0  0  0  0  0  0  0  0
   -1.5441    1.5730    0.3615 H   0  0  0  0  0  0  0  0  0  0  0  0
    2.3568    2.1354   -1.0584 H   0  0  0  0  0  0  0  0  0  0  0  0
    1.6640    3.3887   -0.0012 H   0  0  0  0  0  0  0  0  0  0  0  0
    3.3506    2.0344    1.2112 H   0  0  0  0  0  0  0  0  0  0  0  0
    1.7293    1.8117    1.9112 H   0  0  0  0  0  0  0  0  0  0  0  0
    2.4221    0.5584    0.8541 H   0  0  0  0  0  0  0  0  0  0  0  0
   -2.2431    1.3445   -2.7935 H   0  0  0  0  0  0  0  0  0  0  0  0
   -2.6775    2.3639   -4.9912 H   0  0  0  0  0  0  0  0  0  0  0  0
   -2.7054    3.6272   -6.1252 H   0  0  0  0  0  0  0  0  0  0  0  0
   -1.6991    4.2668   -8.9350 H   0  0  0  0  0  0  0  0  0  0  0  0
   -3.2341    4.8275   -8.2296 H   0  0  0  0  0  0  0  0  0  0  0  0
   -1.6863    5.3832   -7.5487 H   0  0  0  0  0  0  0  0  0  0  0  0
   -2.9237    1.3226   -7.0141 H   0  0  0  0  0  0  0  0  0  0  0  0
   -3.9568    2.4563   -7.9174 H   0  0  0  0  0  0  0  0  0  0  0  0
   -2.4217    1.8956   -8.6228 H   0  0  0  0  0  0  0  0  0  0  0  0
    1.6941    3.1257   -6.6590 H   0  0  0  0  0  0  0  0  0  0  0  0
    6.6109    0.0643   -7.8416 H   0  0  0  0  0  0  0  0  0  0  0  0
    5.8119    1.4124   -8.6932 H   0  0  0  0  0  0  0  0  0  0  0  0
    7.3688    1.5239   -6.0760 H   0  0  0  0  0  0  0  0  0  0  0  0
    7.7696    2.3287   -7.6109 H   0  0  0  0  0  0  0  0  0  0  0  0
    7.8680    4.4003   -6.1991 H   0  0  0  0  0  0  0  0  0  0  0  0
    6.5807    6.3802   -5.5102 H   0  0  0  0  0  0  0  0  0  0  0  0
    4.1185    6.2925   -5.4710 H   0  0  0  0  0  0  0  0  0  0  0  0
    2.9533    4.2282   -6.1265 H   0  0  0  0  0  0  0  0  0  0  0  0
    1.9416    1.3167   -3.6150 H   0  0  0  0  0  0  0  0  0  0  0  0
  1  2  1  0
  1 33  1  6
  1 34  1  0
  1 35  1  0
  2  3  1  0
  2 36  1  1
  2 37  1  0
  3  4  1  0
  6  3  1  1
  4  5  1  0
  4 38  1  6
  4 39  1  0
  5 40  1  1
  5 41  1  0
  5 42  1  0
  6  7  2  0
  6  8  2  0
  6  9  1  0
  9 32  2  0
  9 10  1  0
 10 11  2  0
 10 43  1  0
 11 12  1  0
 11 44  1  0
 12 13  1  0
 12 17  2  0
 13 14  1  0
 14 15  1  0
 14 16  1  0
 14 45  1  1
 15 46  1  6
 15 47  1  0
 15 48  1  0
 16 49  1  1
 16 50  1  0
 16 51  1  0
 17 18  1  0
 17 32  1  0
 18 19  1  0
 18 52  1  0
 19 20  2  0
 19 21  1  0
 21 22  1  6
 21 31  1  0
 21 23  1  0
 23 24  1  0
 24 25  1  0
 24 53  1  6
 24 54  1  0
 25 26  1  0
 25 55  1  1
 25 56  1  0
 26 31  2  0
 26 27  1  0
 27 28  2  0
 27 57  1  0
 28 29  1  0
 28 58  1  0
 29 30  2  0
 29 59  1  0
 30 31  1  0
 30 60  1  0
 32 61  1  0
M  END
$$$$
