ZINC000004409243
     RDKit          3D

 59 61  0  0  1  0  0  0  0  0999 V2000
    0.0028    1.5004   -0.0099 C   0  0  1  0  0  0  0  0  0  0  0  0
    0.0285    0.0356   -0.0119 N   0  0  0  0  0  0  0  0  0  0  0  0
    1.3098   -0.6745   -0.0303 C   0  0  1  0  0  0  0  0  0  0  0  0
   -1.3907   -0.8175    0.0067 S   0  0  1  0  0  0  0  0  0  0  0  0
   -1.0834   -2.0959    0.5456 O   0  0  0  0  0  0  0  0  0  0  0  0
   -2.3708    0.0464    0.5657 O   0  0  0  0  0  0  0  0  0  0  0  0
   -1.8609   -1.0843   -1.6703 C   0  0  0  0  0  0  0  0  0  0  0  0
   -2.6573   -0.1601   -2.3202 C   0  0  0  0  0  0  0  0  0  0  0  0
   -3.0262   -0.3694   -3.6359 C   0  0  0  0  0  0  0  0  0  0  0  0
   -2.5983   -1.5027   -4.3018 C   0  0  0  0  0  0  0  0  0  0  0  0
   -3.0690   -1.7698   -5.9786 S   0  0  1  0  0  0  0  0  0  0  0  0
   -2.9813   -3.1705   -6.2017 O   0  0  0  0  0  0  0  0  0  0  0  0
   -4.2602   -1.0230   -6.1848 O   0  0  0  0  0  0  0  0  0  0  0  0
   -1.9082   -1.0711   -6.9308 N   0  0  0  0  0  0  0  0  0  0  0  0
   -0.7456   -1.8520   -7.3606 C   0  0  1  0  0  0  0  0  0  0  0  0
   -1.0068   -2.4311   -8.7272 C   0  0  0  0  0  0  0  0  0  0  0  0
   -2.0603   -2.2129   -9.2870 O   0  0  0  0  0  0  0  0  0  0  0  0
   -0.0696   -3.1914   -9.3272 N   0  0  0  0  0  0  0  0  0  0  0  0
   -0.3481   -3.8085  -10.5517 C   0  0  0  0  0  0  0  0  0  0  0  0
    0.1744   -5.0641  -10.8329 C   0  0  0  0  0  0  0  0  0  0  0  0
   -0.1024   -5.6705  -12.0425 C   0  0  0  0  0  0  0  0  0  0  0  0
   -0.8985   -5.0286  -12.9733 C   0  0  0  0  0  0  0  0  0  0  0  0
   -1.4200   -3.7781  -12.6965 C   0  0  0  0  0  0  0  0  0  0  0  0
   -1.1524   -3.1692  -11.4861 C   0  0  0  0  0  0  0  0  0  0  0  0
   -2.0439    0.3281   -7.3434 C   0  0  1  0  0  0  0  0  0  0  0  0
   -1.2687    1.2230   -6.3744 C   0  0  1  0  0  0  0  0  0  0  0  0
   -0.2149    0.9448   -6.3642 H   0  0  0  0  0  0  0  0  0  0  0  0
   -1.4280    2.7119   -6.7730 C   0  0  1  0  0  0  0  0  0  0  0  0
   -1.1712    3.4109   -5.4101 C   0  0  1  0  0  0  0  0  0  0  0  0
   -1.7732    2.4038   -4.4068 C   0  0  1  0  0  0  0  0  0  0  0  0
   -1.8232    1.1249   -5.0529 O   0  0  0  0  0  0  0  0  0  0  0  0
   -1.8008   -2.4263   -3.6522 C   0  0  0  0  0  0  0  0  0  0  0  0
   -1.4287   -2.2150   -2.3377 C   0  0  0  0  0  0  0  0  0  0  0  0
    1.0238    1.8817   -0.0235 H   0  0  0  0  0  0  0  0  0  0  0  0
   -0.5296    1.8556   -0.8922 H   0  0  0  0  0  0  0  0  0  0  0  0
   -0.5050    1.8536    0.8876 H   0  0  0  0  0  0  0  0  0  0  0  0
    1.6417   -0.8517    0.9927 H   0  0  0  0  0  0  0  0  0  0  0  0
    1.1891   -1.6285   -0.5436 H   0  0  0  0  0  0  0  0  0  0  0  0
    2.0518   -0.0716   -0.5538 H   0  0  0  0  0  0  0  0  0  0  0  0
   -2.9917    0.7254   -1.8000 H   0  0  0  0  0  0  0  0  0  0  0  0
   -3.6490    0.3523   -4.1435 H   0  0  0  0  0  0  0  0  0  0  0  0
    0.1312   -1.2058   -7.4013 H   0  0  0  0  0  0  0  0  0  0  0  0
   -0.5686   -2.6604   -6.6512 H   0  0  0  0  0  0  0  0  0  0  0  0
    0.7980   -3.3108   -8.9102 H   0  0  0  0  0  0  0  0  0  0  0  0
    0.7968   -5.5656  -10.1067 H   0  0  0  0  0  0  0  0  0  0  0  0
    0.3037   -6.6469  -12.2618 H   0  0  0  0  0  0  0  0  0  0  0  0
   -1.1132   -5.5048  -13.9186 H   0  0  0  0  0  0  0  0  0  0  0  0
   -2.0408   -3.2791  -13.4259 H   0  0  0  0  0  0  0  0  0  0  0  0
   -1.5599   -2.1925  -11.2705 H   0  0  0  0  0  0  0  0  0  0  0  0
   -1.6441    0.4504   -8.3500 H   0  0  0  0  0  0  0  0  0  0  0  0
   -3.0971    0.6091   -7.3341 H   0  0  0  0  0  0  0  0  0  0  0  0
   -0.6805    3.0032   -7.5109 H   0  0  0  0  0  0  0  0  0  0  0  0
   -2.4355    2.9159   -7.1355 H   0  0  0  0  0  0  0  0  0  0  0  0
   -0.1031    3.5407   -5.2358 H   0  0  0  0  0  0  0  0  0  0  0  0
   -1.6925    4.3669   -5.3602 H   0  0  0  0  0  0  0  0  0  0  0  0
   -1.1427    2.3439   -3.5196 H   0  0  0  0  0  0  0  0  0  0  0  0
   -2.7789    2.7173   -4.1266 H   0  0  0  0  0  0  0  0  0  0  0  0
   -1.4661   -3.3115   -4.1726 H   0  0  0  0  0  0  0  0  0  0  0  0
   -0.8056   -2.9366   -1.8303 H   0  0  0  0  0  0  0  0  0  0  0  0
  1  2  1  0
  1 34  1  6
  1 35  1  0
  1 36  1  0
  2  3  1  0
  4  2  1  6
  3 37  1  1
  3 38  1  0
  3 39  1  0
  4  5  2  0
  4  6  2  0
  4  7  1  0
  7 33  2  0
  7  8  1  0
  8  9  2  0
  8 40  1  0
  9 10  1  0
  9 41  1  0
 10 11  1  0
 10 32  2  0
 11 12  2  0
 11 13  2  0
 11 14  1  6
 14 15  1  0
 14 25  1  0
 15 16  1  0
 15 42  1  6
 15 43  1  0
 16 17  2  0
 16 18  1  0
 18 19  1  0
 18 44  1  0
 19 24  2  0
 19 20  1  0
 20 21  2  0
 20 45  1  0
 21 22  1  0
 21 46  1  0
 22 23  2  0
 22 47  1  0
 23 24  1  0
 23 48  1  0
 24 49  1  0
 25 26  1  0
 25 50  1  6
 25 51  1  0
 26 27  1  1
 26 31  1  0
 26 28  1  0
 28 29  1  0
 28 52  1  6
 28 53  1  0
 29 30  1  0
 29 54  1  1
 29 55  1  0
 30 31  1  0
 30 56  1  1
 30 57  1  0
 32 33  1  0
 32 58  1  0
 33 59  1  0
M  END
$$$$
