ZINC000408614162
     RDKit          3D

 59 61  0  0  1  0  0  0  0  0999 V2000
   -0.0187    1.5258    0.0104 C   0  0  1  0  0  0  0  0  0  0  0  0
    0.0021   -0.0041    0.0020 C   0  0  1  0  0  0  0  0  0  0  0  0
    0.5123   -0.3556   -0.8948 H   0  0  0  0  0  0  0  0  0  0  0  0
    0.7421   -0.5109    1.2415 C   0  0  1  0  0  0  0  0  0  0  0  0
    0.8719   -2.0337    1.1708 C   0  0  1  0  0  0  0  0  0  0  0  0
    1.6008   -2.5330    2.3917 C   0  0  0  0  0  0  0  0  0  0  0  0
    2.9789   -2.6409    2.3781 C   0  0  0  0  0  0  0  0  0  0  0  0
    3.6475   -3.0988    3.4980 C   0  0  0  0  0  0  0  0  0  0  0  0
    2.9380   -3.4484    4.6317 C   0  0  0  0  0  0  0  0  0  0  0  0
    1.5600   -3.3396    4.6457 C   0  0  0  0  0  0  0  0  0  0  0  0
    0.8918   -2.8776    3.5272 C   0  0  0  0  0  0  0  0  0  0  0  0
   -1.3723   -0.5112    0.0124 N   0  0  0  0  0  0  0  0  0  0  0  0
   -2.0508   -0.6427   -1.1446 C   0  0  0  0  0  0  0  0  0  0  0  0
   -1.5236   -0.3413   -2.1944 O   0  0  0  0  0  0  0  0  0  0  0  0
   -3.4646   -1.1643   -1.1339 C   0  0  1  0  0  0  0  0  0  0  0  0
   -3.9776   -1.2130   -2.5053 N   0  0  0  0  0  0  0  0  0  0  0  0
   -3.7030   -2.3787   -3.3491 C   0  0  1  0  0  0  0  0  0  0  0  0
   -4.7315   -3.4469   -3.0803 C   0  0  0  0  0  0  0  0  0  0  0  0
   -4.5071   -4.3901   -2.0949 C   0  0  0  0  0  0  0  0  0  0  0  0
   -5.4505   -5.3699   -1.8483 C   0  0  0  0  0  0  0  0  0  0  0  0
   -6.6185   -5.4063   -2.5867 C   0  0  0  0  0  0  0  0  0  0  0  0
   -6.8434   -4.4625   -3.5715 C   0  0  0  0  0  0  0  0  0  0  0  0
   -5.9018   -3.4801   -3.8152 C   0  0  0  0  0  0  0  0  0  0  0  0
   -4.8677    0.0496   -3.1018 S   0  0  1  0  0  0  0  0  0  0  0  0
   -5.6571   -0.4796   -4.1582 O   0  0  0  0  0  0  0  0  0  0  0  0
   -5.4223    0.7166   -1.9762 O   0  0  0  0  0  0  0  0  0  0  0  0
   -3.7377    1.1801   -3.8431 C   0  0  0  0  0  0  0  0  0  0  0  0
   -3.1779    2.1929   -3.0869 C   0  0  0  0  0  0  0  0  0  0  0  0
   -2.2915    3.0802   -3.6672 C   0  0  0  0  0  0  0  0  0  0  0  0
   -1.9638    2.9542   -5.0066 C   0  0  0  0  0  0  0  0  0  0  0  0
   -1.0971    3.8208   -5.5749 F   0  0  0  0  0  0  0  0  0  0  0  0
   -2.5248    1.9392   -5.7629 C   0  0  0  0  0  0  0  0  0  0  0  0
   -3.4073    1.0501   -5.1792 C   0  0  0  0  0  0  0  0  0  0  0  0
    1.0039    1.9031    0.0027 H   0  0  0  0  0  0  0  0  0  0  0  0
   -0.5459    1.8868   -0.8726 H   0  0  0  0  0  0  0  0  0  0  0  0
   -0.5289    1.8773    0.9072 H   0  0  0  0  0  0  0  0  0  0  0  0
    1.7350   -0.0630    1.2804 H   0  0  0  0  0  0  0  0  0  0  0  0
    0.1838   -0.2350    2.1361 H   0  0  0  0  0  0  0  0  0  0  0  0
   -0.1210   -2.4817    1.1320 H   0  0  0  0  0  0  0  0  0  0  0  0
    1.4302   -2.3096    0.2763 H   0  0  0  0  0  0  0  0  0  0  0  0
    3.5331   -2.3677    1.4923 H   0  0  0  0  0  0  0  0  0  0  0  0
    4.7241   -3.1838    3.4870 H   0  0  0  0  0  0  0  0  0  0  0  0
    3.4603   -3.8068    5.5064 H   0  0  0  0  0  0  0  0  0  0  0  0
    1.0057   -3.6130    5.5313 H   0  0  0  0  0  0  0  0  0  0  0  0
   -0.1848   -2.7926    3.5382 H   0  0  0  0  0  0  0  0  0  0  0  0
   -1.7940   -0.7522    0.8520 H   0  0  0  0  0  0  0  0  0  0  0  0
   -3.4790   -2.1662   -0.7048 H   0  0  0  0  0  0  0  0  0  0  0  0
   -4.0912   -0.5035   -0.5349 H   0  0  0  0  0  0  0  0  0  0  0  0
   -3.7483   -2.0866   -4.3983 H   0  0  0  0  0  0  0  0  0  0  0  0
   -2.7096   -2.7656   -3.1222 H   0  0  0  0  0  0  0  0  0  0  0  0
   -3.5945   -4.3617   -1.5180 H   0  0  0  0  0  0  0  0  0  0  0  0
   -5.2749   -6.1072   -1.0789 H   0  0  0  0  0  0  0  0  0  0  0  0
   -7.3553   -6.1722   -2.3945 H   0  0  0  0  0  0  0  0  0  0  0  0
   -7.7558   -4.4912   -4.1486 H   0  0  0  0  0  0  0  0  0  0  0  0
   -6.0775   -2.7428   -4.5845 H   0  0  0  0  0  0  0  0  0  0  0  0
   -3.4336    2.2910   -2.0422 H   0  0  0  0  0  0  0  0  0  0  0  0
   -1.8548    3.8718   -3.0764 H   0  0  0  0  0  0  0  0  0  0  0  0
   -2.2702    1.8401   -6.8078 H   0  0  0  0  0  0  0  0  0  0  0  0
   -3.8447    0.2581   -5.7688 H   0  0  0  0  0  0  0  0  0  0  0  0
  1  2  1  0
  1 34  1  6
  1 35  1  0
  1 36  1  0
  2  3  1  6
  2  4  1  0
  2 12  1  0
  4  5  1  0
  4 37  1  1
  4 38  1  0
  5  6  1  0
  5 39  1  6
  5 40  1  0
  6 11  2  0
  6  7  1  0
  7  8  2  0
  7 41  1  0
  8  9  1  0
  8 42  1  0
  9 10  2  0
  9 43  1  0
 10 11  1  0
 10 44  1  0
 11 45  1  0
 12 13  1  0
 12 46  1  0
 13 14  2  0
 13 15  1  0
 15 16  1  0
 15 47  1  1
 15 48  1  0
 16 17  1  0
 24 16  1  1
 17 18  1  0
 17 49  1  6
 17 50  1  0
 18 23  2  0
 18 19  1  0
 19 20  2  0
 19 51  1  0
 20 21  1  0
 20 52  1  0
 21 22  2  0
 21 53  1  0
 22 23  1  0
 22 54  1  0
 23 55  1  0
 24 25  2  0
 24 26  2  0
 24 27  1  0
 27 33  2  0
 27 28  1  0
 28 29  2  0
 28 56  1  0
 29 30  1  0
 29 57  1  0
 30 31  1  0
 30 32  2  0
 32 33  1  0
 32 58  1  0
 33 59  1  0
M  END
$$$$
