ZINC000021003051
     RDKit          3D

 59 60  0  0  0  0  0  0  0  0999 V2000
   -0.0187    1.5258    0.0104 C   0  0  1  0  0  0  0  0  0  0  0  0
    0.0021   -0.0041    0.0020 C   0  0  1  0  0  0  0  0  0  0  0  0
    0.6878   -0.4765   -1.2033 N   0  0  0  0  0  0  0  0  0  0  0  0
    2.1478   -0.5966   -1.2159 C   0  0  1  0  0  0  0  0  0  0  0  0
    2.5532   -1.9514   -0.6319 C   0  0  1  0  0  0  0  0  0  0  0  0
   -0.1875   -0.8749   -2.5515 S   0  0  1  0  0  0  0  0  0  0  0  0
    0.6166   -1.7761   -3.3001 O   0  0  0  0  0  0  0  0  0  0  0  0
   -1.4970   -1.1925   -2.1004 O   0  0  0  0  0  0  0  0  0  0  0  0
   -0.3375    0.5853   -3.5262 C   0  0  0  0  0  0  0  0  0  0  0  0
   -1.4057    1.4405   -3.3300 C   0  0  0  0  0  0  0  0  0  0  0  0
   -1.5234    2.5861   -4.0947 C   0  0  0  0  0  0  0  0  0  0  0  0
   -0.5727    2.8767   -5.0552 C   0  0  0  0  0  0  0  0  0  0  0  0
   -0.7013    4.1253   -5.8892 C   0  0  1  0  0  0  0  0  0  0  0  0
    0.0204    5.2805   -5.1924 C   0  0  1  0  0  0  0  0  0  0  0  0
   -0.1082    6.5291   -6.0263 C   0  0  0  0  0  0  0  0  0  0  0  0
   -0.7171    6.4981   -7.0748 O   0  0  0  0  0  0  0  0  0  0  0  0
    0.4534    7.6803   -5.6071 N   0  0  0  0  0  0  0  0  0  0  0  0
    0.3284    8.8941   -6.4178 C   0  0  1  0  0  0  0  0  0  0  0  0
    1.0500   10.0494   -5.7210 C   0  0  1  0  0  0  0  0  0  0  0  0
    0.9214   11.2980   -6.5550 C   0  0  0  0  0  0  0  0  0  0  0  0
   -0.0349   12.1224   -6.2700 C   0  0  0  0  0  0  0  0  0  0  0  0
   -0.2952   13.3985   -7.0156 C   0  0  1  0  0  0  0  0  0  0  0  0
    0.9345   13.7880   -7.8389 C   0  0  1  0  0  0  0  0  0  0  0  0
    1.3884   12.5628   -8.6425 C   0  0  1  0  0  0  0  0  0  0  0  0
    1.9138   11.5112   -7.6604 C   0  0  1  0  0  0  0  0  0  0  0  0
    0.4962    2.0221   -5.2504 C   0  0  0  0  0  0  0  0  0  0  0  0
    0.6160    0.8786   -4.4831 C   0  0  0  0  0  0  0  0  0  0  0  0
    1.0039    1.9031    0.0027 H   0  0  0  0  0  0  0  0  0  0  0  0
   -0.5459    1.8868   -0.8726 H   0  0  0  0  0  0  0  0  0  0  0  0
   -0.5289    1.8773    0.9072 H   0  0  0  0  0  0  0  0  0  0  0  0
    0.5293   -0.3651    0.8851 H   0  0  0  0  0  0  0  0  0  0  0  0
   -1.0205   -0.3814    0.0098 H   0  0  0  0  0  0  0  0  0  0  0  0
    2.5098   -0.5199   -2.2412 H   0  0  0  0  0  0  0  0  0  0  0  0
    2.5833    0.2026   -0.6162 H   0  0  0  0  0  0  0  0  0  0  0  0
    2.1177   -2.7506   -1.2316 H   0  0  0  0  0  0  0  0  0  0  0  0
    3.6395   -2.0407   -0.6413 H   0  0  0  0  0  0  0  0  0  0  0  0
    2.1912   -2.0280    0.3934 H   0  0  0  0  0  0  0  0  0  0  0  0
   -2.1485    1.2135   -2.5796 H   0  0  0  0  0  0  0  0  0  0  0  0
   -2.3583    3.2539   -3.9419 H   0  0  0  0  0  0  0  0  0  0  0  0
   -0.2543    3.9556   -6.8687 H   0  0  0  0  0  0  0  0  0  0  0  0
   -1.7555    4.3750   -6.0092 H   0  0  0  0  0  0  0  0  0  0  0  0
   -0.4267    5.4502   -4.2129 H   0  0  0  0  0  0  0  0  0  0  0  0
    1.0745    5.0308   -5.0723 H   0  0  0  0  0  0  0  0  0  0  0  0
    0.9404    7.7052   -4.7686 H   0  0  0  0  0  0  0  0  0  0  0  0
    0.7754    8.7245   -7.3973 H   0  0  0  0  0  0  0  0  0  0  0  0
   -0.7258    9.1439   -6.5379 H   0  0  0  0  0  0  0  0  0  0  0  0
    0.6030   10.2191   -4.7415 H   0  0  0  0  0  0  0  0  0  0  0  0
    2.1042    9.7996   -5.6010 H   0  0  0  0  0  0  0  0  0  0  0  0
   -0.6863   11.8764   -5.4444 H   0  0  0  0  0  0  0  0  0  0  0  0
   -1.1470   13.2605   -7.6816 H   0  0  0  0  0  0  0  0  0  0  0  0
   -0.5203   14.1931   -6.3043 H   0  0  0  0  0  0  0  0  0  0  0  0
    0.6772   14.5986   -8.5207 H   0  0  0  0  0  0  0  0  0  0  0  0
    1.7359   14.1064   -7.1722 H   0  0  0  0  0  0  0  0  0  0  0  0
    0.5447   12.1581   -9.2014 H   0  0  0  0  0  0  0  0  0  0  0  0
    2.1837   12.8499   -9.3304 H   0  0  0  0  0  0  0  0  0  0  0  0
    2.8621   11.8490   -7.2425 H   0  0  0  0  0  0  0  0  0  0  0  0
    2.0685   10.5698   -8.1876 H   0  0  0  0  0  0  0  0  0  0  0  0
    1.2392    2.2494   -6.0006 H   0  0  0  0  0  0  0  0  0  0  0  0
    1.4511    0.2109   -4.6357 H   0  0  0  0  0  0  0  0  0  0  0  0
  1  2  1  0
  1 28  1  6
  1 29  1  0
  1 30  1  0
  2  3  1  0
  2 31  1  1
  2 32  1  0
  3  4  1  0
  6  3  1  1
  4  5  1  0
  4 33  1  6
  4 34  1  0
  5 35  1  6
  5 36  1  0
  5 37  1  0
  6  7  2  0
  6  8  2  0
  6  9  1  0
  9 27  2  0
  9 10  1  0
 10 11  2  0
 10 38  1  0
 11 12  1  0
 11 39  1  0
 12 13  1  0
 12 26  2  0
 13 14  1  0
 13 40  1  6
 13 41  1  0
 14 15  1  0
 14 42  1  1
 14 43  1  0
 15 16  2  0
 15 17  1  0
 17 18  1  0
 17 44  1  0
 18 19  1  0
 18 45  1  6
 18 46  1  0
 19 20  1  0
 19 47  1  1
 19 48  1  0
 20 25  1  0
 20 21  2  0
 21 22  1  0
 21 49  1  0
 22 23  1  0
 22 50  1  6
 22 51  1  0
 23 24  1  0
 23 52  1  6
 23 53  1  0
 24 25  1  0
 24 54  1  6
 24 55  1  0
 25 56  1  1
 25 57  1  0
 26 27  1  0
 26 58  1  0
 27 59  1  0
M  END
$$$$
