ZINC000009462086
     RDKit          3D

 56 58  0  0  1  0  0  0  0  0999 V2000
   -0.0187    1.5258    0.0104 C   0  0  1  0  0  0  0  0  0  0  0  0
    0.0021   -0.0041    0.0020 C   0  0  2  0  0  0  0  0  0  0  0  0
    0.5293   -0.3651    0.8851 H   0  0  0  0  0  0  0  0  0  0  0  0
    0.7182   -0.4975   -1.2568 C   0  0  1  0  0  0  0  0  0  0  0  0
    0.8493   -2.0210   -1.2049 C   0  0  1  0  0  0  0  0  0  0  0  0
    1.5546   -2.5070   -2.4448 C   0  0  0  0  0  0  0  0  0  0  0  0
    0.8244   -2.8341   -3.5721 C   0  0  0  0  0  0  0  0  0  0  0  0
    1.4715   -3.2799   -4.7094 C   0  0  0  0  0  0  0  0  0  0  0  0
    2.8487   -3.3982   -4.7196 C   0  0  0  0  0  0  0  0  0  0  0  0
    3.5790   -3.0702   -3.5927 C   0  0  0  0  0  0  0  0  0  0  0  0
    2.9323   -2.6203   -2.4567 C   0  0  0  0  0  0  0  0  0  0  0  0
   -1.3723   -0.5112    0.0124 N   0  0  0  0  0  0  0  0  0  0  0  0
   -2.0286   -0.6552    1.1807 C   0  0  0  0  0  0  0  0  0  0  0  0
   -1.4814   -0.3650    2.2235 O   0  0  0  0  0  0  0  0  0  0  0  0
   -3.4424   -1.1768    1.1914 C   0  0  1  0  0  0  0  0  0  0  0  0
   -3.9291   -1.2403    2.5718 N   0  0  0  0  0  0  0  0  0  0  0  0
   -4.5122   -0.0513    3.1983 C   0  0  1  0  0  0  0  0  0  0  0  0
   -5.9732    0.0399    2.8402 C   0  0  0  0  0  0  0  0  0  0  0  0
   -6.9894   -0.4973    3.5388 C   0  0  0  0  0  0  0  0  0  0  0  0
   -8.1791   -0.1703    2.8484 C   0  0  0  0  0  0  0  0  0  0  0  0
   -7.8187    0.5471    1.7691 C   0  0  0  0  0  0  0  0  0  0  0  0
   -6.4818    0.6762    1.7724 O   0  0  0  0  0  0  0  0  0  0  0  0
   -3.8201   -2.6561    3.4239 S   0  0  1  0  0  0  0  0  0  0  0  0
   -4.8130   -2.5912    4.4384 O   0  0  0  0  0  0  0  0  0  0  0  0
   -3.7592   -3.6999    2.4616 O   0  0  0  0  0  0  0  0  0  0  0  0
   -2.2637   -2.6493    4.2497 C   0  0  0  0  0  0  0  0  0  0  0  0
   -1.1474   -3.1726    3.6243 C   0  0  0  0  0  0  0  0  0  0  0  0
    0.0738   -3.1676    4.2716 C   0  0  0  0  0  0  0  0  0  0  0  0
    0.1789   -2.6386    5.5457 C   0  0  0  0  0  0  0  0  0  0  0  0
    1.7125   -2.6314    6.3591 Cl  0  0  0  0  0  0  0  0  0  0  0  0
   -0.9386   -2.1150    6.1711 C   0  0  0  0  0  0  0  0  0  0  0  0
   -2.1581   -2.1155    5.5206 C   0  0  0  0  0  0  0  0  0  0  0  0
    1.0039    1.9031    0.0027 H   0  0  0  0  0  0  0  0  0  0  0  0
   -0.5459    1.8868   -0.8726 H   0  0  0  0  0  0  0  0  0  0  0  0
   -0.5289    1.8773    0.9072 H   0  0  0  0  0  0  0  0  0  0  0  0
    0.1430   -0.2121   -2.1375 H   0  0  0  0  0  0  0  0  0  0  0  0
    1.7103   -0.0491   -1.3098 H   0  0  0  0  0  0  0  0  0  0  0  0
    1.4245   -2.3064   -0.3242 H   0  0  0  0  0  0  0  0  0  0  0  0
   -0.1428   -2.4694   -1.1520 H   0  0  0  0  0  0  0  0  0  0  0  0
   -0.2516   -2.7418   -3.5641 H   0  0  0  0  0  0  0  0  0  0  0  0
    0.9009   -3.5362   -5.5899 H   0  0  0  0  0  0  0  0  0  0  0  0
    3.3542   -3.7471   -5.6080 H   0  0  0  0  0  0  0  0  0  0  0  0
    4.6550   -3.1628   -3.6005 H   0  0  0  0  0  0  0  0  0  0  0  0
    3.5028   -2.3640   -1.5763 H   0  0  0  0  0  0  0  0  0  0  0  0
   -1.8100   -0.7432   -0.8215 H   0  0  0  0  0  0  0  0  0  0  0  0
   -4.0803   -0.5097    0.6116 H   0  0  0  0  0  0  0  0  0  0  0  0
   -3.4651   -2.1740    0.7520 H   0  0  0  0  0  0  0  0  0  0  0  0
   -4.4072   -0.1226    4.2809 H   0  0  0  0  0  0  0  0  0  0  0  0
   -3.9942    0.8387    2.8409 H   0  0  0  0  0  0  0  0  0  0  0  0
   -6.9114   -1.0691    4.4517 H   0  0  0  0  0  0  0  0  0  0  0  0
   -9.1843   -0.4443    3.1328 H   0  0  0  0  0  0  0  0  0  0  0  0
   -8.4907    0.9538    1.0279 H   0  0  0  0  0  0  0  0  0  0  0  0
   -1.2296   -3.5858    2.6299 H   0  0  0  0  0  0  0  0  0  0  0  0
    0.9457   -3.5768    3.7831 H   0  0  0  0  0  0  0  0  0  0  0  0
   -0.8572   -1.7023    7.1658 H   0  0  0  0  0  0  0  0  0  0  0  0
   -3.0305   -1.7065    6.0085 H   0  0  0  0  0  0  0  0  0  0  0  0
  1  2  1  0
  1 33  1  6
  1 34  1  0
  1 35  1  0
  2  3  1  1
  2  4  1  0
  2 12  1  0
  4  5  1  0
  4 36  1  6
  4 37  1  0
  5  6  1  0
  5 38  1  1
  5 39  1  0
  6 11  2  0
  6  7  1  0
  7  8  2  0
  7 40  1  0
  8  9  1  0
  8 41  1  0
  9 10  2  0
  9 42  1  0
 10 11  1  0
 10 43  1  0
 11 44  1  0
 12 13  1  0
 12 45  1  0
 13 14  2  0
 13 15  1  0
 15 16  1  0
 15 46  1  6
 15 47  1  0
 16 17  1  0
 23 16  1  6
 17 18  1  0
 17 48  1  1
 17 49  1  0
 18 22  1  0
 18 19  2  0
 19 20  1  0
 19 50  1  0
 20 21  2  0
 20 51  1  0
 21 22  1  0
 21 52  1  0
 23 24  2  0
 23 25  2  0
 23 26  1  0
 26 32  2  0
 26 27  1  0
 27 28  2  0
 27 53  1  0
 28 29  1  0
 28 54  1  0
 29 30  1  0
 29 31  2  0
 31 32  1  0
 31 55  1  0
 32 56  1  0
M  END
$$$$
