ZINC000028208146
     RDKit          3D

 53 54  0  0  0  0  0  0  0  0999 V2000
    0.8588   -0.8595   -0.9058 C   0  0  1  0  0  0  0  0  0  0  0  0
   -0.0055    0.0163    0.0036 C   0  0  1  0  0  0  0  0  0  0  0  0
   -1.4174   -0.5103    0.0140 C   0  0  0  0  0  0  0  0  0  0  0  0
   -2.3313   -0.0528   -0.9175 C   0  0  0  0  0  0  0  0  0  0  0  0
   -3.6261   -0.5334   -0.9105 C   0  0  0  0  0  0  0  0  0  0  0  0
   -4.0097   -1.4775    0.0329 C   0  0  0  0  0  0  0  0  0  0  0  0
   -5.3205   -1.9668    0.0423 N   0  0  0  0  0  0  0  0  0  0  0  0
   -5.9972   -2.1032   -1.1152 C   0  0  0  0  0  0  0  0  0  0  0  0
   -5.4399   -1.8935   -2.1719 O   0  0  0  0  0  0  0  0  0  0  0  0
   -7.4464   -2.5164   -1.0967 C   0  0  1  0  0  0  0  0  0  0  0  0
   -7.9376   -2.5912   -2.4366 O   0  0  0  0  0  0  0  0  0  0  0  0
   -9.2377   -2.9532   -2.5979 C   0  0  0  0  0  0  0  0  0  0  0  0
  -10.0257   -3.2250   -1.4897 C   0  0  0  0  0  0  0  0  0  0  0  0
  -11.3474   -3.5925   -1.6561 C   0  0  0  0  0  0  0  0  0  0  0  0
  -11.8848   -3.6898   -2.9260 C   0  0  0  0  0  0  0  0  0  0  0  0
  -13.5705   -4.1586   -3.1340 S   0  0  1  0  0  0  0  0  0  0  0  0
  -13.6780   -4.6987   -4.4440 O   0  0  0  0  0  0  0  0  0  0  0  0
  -13.9340   -4.8787   -1.9642 O   0  0  0  0  0  0  0  0  0  0  0  0
  -14.4705   -2.7685   -3.1260 N   0  0  0  0  0  0  0  0  0  0  0  0
  -14.7386   -2.0623   -4.3812 C   0  0  1  0  0  0  0  0  0  0  0  0
  -16.0948   -2.5037   -4.9351 C   0  0  1  0  0  0  0  0  0  0  0  0
  -14.9985   -2.2450   -1.8638 C   0  0  1  0  0  0  0  0  0  0  0  0
  -14.0378   -1.1927   -1.3064 C   0  0  1  0  0  0  0  0  0  0  0  0
  -11.1019   -3.4194   -4.0334 C   0  0  0  0  0  0  0  0  0  0  0  0
   -9.7809   -3.0459   -3.8724 C   0  0  0  0  0  0  0  0  0  0  0  0
   -8.7982   -2.7065   -5.2626 Cl  0  0  0  0  0  0  0  0  0  0  0  0
   -3.0893   -1.9353    0.9667 C   0  0  0  0  0  0  0  0  0  0  0  0
   -1.7948   -1.4543    0.9514 C   0  0  0  0  0  0  0  0  0  0  0  0
    1.8800   -0.4786   -0.9133 H   0  0  0  0  0  0  0  0  0  0  0  0
    0.8558   -1.8839   -0.5333 H   0  0  0  0  0  0  0  0  0  0  0  0
    0.4562   -0.8400   -1.9185 H   0  0  0  0  0  0  0  0  0  0  0  0
    0.3971   -0.0032    1.0163 H   0  0  0  0  0  0  0  0  0  0  0  0
   -0.0025    1.0407   -0.3689 H   0  0  0  0  0  0  0  0  0  0  0  0
   -2.0324    0.6814   -1.6509 H   0  0  0  0  0  0  0  0  0  0  0  0
   -4.3396   -0.1752   -1.6379 H   0  0  0  0  0  0  0  0  0  0  0  0
   -5.7422   -2.2079    0.8819 H   0  0  0  0  0  0  0  0  0  0  0  0
   -7.5399   -3.4924   -0.6205 H   0  0  0  0  0  0  0  0  0  0  0  0
   -8.0264   -1.7822   -0.5375 H   0  0  0  0  0  0  0  0  0  0  0  0
   -9.6065   -3.1500   -0.4972 H   0  0  0  0  0  0  0  0  0  0  0  0
  -11.9612   -3.8042   -0.7930 H   0  0  0  0  0  0  0  0  0  0  0  0
  -14.7533   -0.9880   -4.1977 H   0  0  0  0  0  0  0  0  0  0  0  0
  -13.9572   -2.2967   -5.1041 H   0  0  0  0  0  0  0  0  0  0  0  0
  -16.2943   -1.9782   -5.8690 H   0  0  0  0  0  0  0  0  0  0  0  0
  -16.0801   -3.5780   -5.1186 H   0  0  0  0  0  0  0  0  0  0  0  0
  -16.8762   -2.2692   -4.2122 H   0  0  0  0  0  0  0  0  0  0  0  0
  -15.9736   -1.7904   -2.0385 H   0  0  0  0  0  0  0  0  0  0  0  0
  -15.1006   -3.0597   -1.1469 H   0  0  0  0  0  0  0  0  0  0  0  0
  -14.4306   -0.8032   -0.3672 H   0  0  0  0  0  0  0  0  0  0  0  0
  -13.0626   -1.6473   -1.1316 H   0  0  0  0  0  0  0  0  0  0  0  0
  -13.9356   -0.3780   -2.0232 H   0  0  0  0  0  0  0  0  0  0  0  0
  -11.5240   -3.4962   -5.0245 H   0  0  0  0  0  0  0  0  0  0  0  0
   -3.3846   -2.6695    1.7017 H   0  0  0  0  0  0  0  0  0  0  0  0
   -1.0786   -1.8099    1.6774 H   0  0  0  0  0  0  0  0  0  0  0  0
  1  2  1  0
  1 29  1  6
  1 30  1  0
  1 31  1  0
  2  3  1  0
  2 32  1  1
  2 33  1  0
  3 28  2  0
  3  4  1  0
  4  5  2  0
  4 34  1  0
  5  6  1  0
  5 35  1  0
  6  7  1  0
  6 27  2  0
  7  8  1  0
  7 36  1  0
  8  9  2  0
  8 10  1  0
 10 11  1  0
 10 37  1  1
 10 38  1  0
 11 12  1  0
 12 25  2  0
 12 13  1  0
 13 14  2  0
 13 39  1  0
 14 15  1  0
 14 40  1  0
 15 16  1  0
 15 24  2  0
 16 17  2  0
 16 18  2  0
 16 19  1  6
 19 20  1  0
 19 22  1  0
 20 21  1  0
 20 41  1  1
 20 42  1  0
 21 43  1  6
 21 44  1  0
 21 45  1  0
 22 23  1  0
 22 46  1  6
 22 47  1  0
 23 48  1  1
 23 49  1  0
 23 50  1  0
 24 25  1  0
 24 51  1  0
 25 26  1  0
 27 28  1  0
 27 52  1  0
 28 53  1  0
M  END
$$$$
