ZINC000000079959
     RDKit          3D

 44 46  0  0  0  0  0  0  0  0999 V2000
    0.0021   -0.0041    0.0020 O   0  0  0  0  0  0  0  0  0  0  0  0
   -0.0144    1.2086    0.0087 C   0  0  0  0  0  0  0  0  0  0  0  0
    1.2803    1.9798    0.0005 C   0  0  1  0  0  0  0  0  0  0  0  0
    2.4066    1.0431   -0.0153 N   0  0  0  0  0  0  0  0  0  0  0  0
    2.8870    0.4965   -1.2868 C   0  0  1  0  0  0  0  0  0  0  0  0
    3.8656    1.4585   -1.9094 C   0  0  0  0  0  0  0  0  0  0  0  0
    3.4145    2.4470   -2.7641 C   0  0  0  0  0  0  0  0  0  0  0  0
    4.3122    3.3295   -3.3352 C   0  0  0  0  0  0  0  0  0  0  0  0
    5.6610    3.2238   -3.0514 C   0  0  0  0  0  0  0  0  0  0  0  0
    6.1120    2.2359   -2.1960 C   0  0  0  0  0  0  0  0  0  0  0  0
    5.2138    1.3561   -1.6216 C   0  0  0  0  0  0  0  0  0  0  0  0
    3.1367    0.6021    1.4041 S   0  0  1  0  0  0  0  0  0  0  0  0
    4.4513    0.1819    1.0655 O   0  0  0  0  0  0  0  0  0  0  0  0
    2.8687    1.6430    2.3335 O   0  0  0  0  0  0  0  0  0  0  0  0
    2.2960   -0.8267    2.0012 C   0  0  0  0  0  0  0  0  0  0  0  0
    1.2047   -0.6872    2.8382 C   0  0  0  0  0  0  0  0  0  0  0  0
    0.5451   -1.8081    3.3066 C   0  0  0  0  0  0  0  0  0  0  0  0
    0.9765   -3.0685    2.9376 C   0  0  0  0  0  0  0  0  0  0  0  0
    2.0672   -3.2080    2.0999 C   0  0  0  0  0  0  0  0  0  0  0  0
    2.7242   -2.0870    1.6280 C   0  0  0  0  0  0  0  0  0  0  0  0
   -1.1906    1.8666    0.0178 N   0  0  0  0  0  0  0  0  0  0  0  0
   -2.4492    1.1169    0.0197 C   0  0  1  0  0  0  0  0  0  0  0  0
   -3.5545    1.5944    0.9639 C   0  0  1  0  0  0  0  0  0  0  0  0
   -3.6883    1.8152   -0.5442 C   0  0  1  0  0  0  0  0  0  0  0  0
    1.3211    2.6120   -0.8866 H   0  0  0  0  0  0  0  0  0  0  0  0
    1.3381    2.6024    0.8933 H   0  0  0  0  0  0  0  0  0  0  0  0
    3.3803   -0.4590   -1.1083 H   0  0  0  0  0  0  0  0  0  0  0  0
    2.0432    0.3494   -1.9610 H   0  0  0  0  0  0  0  0  0  0  0  0
    2.3608    2.5295   -2.9858 H   0  0  0  0  0  0  0  0  0  0  0  0
    3.9599    4.1013   -4.0034 H   0  0  0  0  0  0  0  0  0  0  0  0
    6.3624    3.9129   -3.4981 H   0  0  0  0  0  0  0  0  0  0  0  0
    7.1658    2.1532   -1.9746 H   0  0  0  0  0  0  0  0  0  0  0  0
    5.5661    0.5843   -0.9533 H   0  0  0  0  0  0  0  0  0  0  0  0
    0.8677    0.2976    3.1264 H   0  0  0  0  0  0  0  0  0  0  0  0
   -0.3070   -1.6991    3.9611 H   0  0  0  0  0  0  0  0  0  0  0  0
    0.4616   -3.9442    3.3041 H   0  0  0  0  0  0  0  0  0  0  0  0
    2.4045   -4.1928    1.8119 H   0  0  0  0  0  0  0  0  0  0  0  0
    3.5763   -2.1960    0.9735 H   0  0  0  0  0  0  0  0  0  0  0  0
   -1.2037    2.8365    0.0232 H   0  0  0  0  0  0  0  0  0  0  0  0
   -2.3574    0.0435   -0.1460 H   0  0  0  0  0  0  0  0  0  0  0  0
   -4.1899    0.8350    1.4197 H   0  0  0  0  0  0  0  0  0  0  0  0
   -3.3451    2.4662    1.5836 H   0  0  0  0  0  0  0  0  0  0  0  0
   -3.5670    2.8324   -0.9165 H   0  0  0  0  0  0  0  0  0  0  0  0
   -4.4117    1.2012   -1.0805 H   0  0  0  0  0  0  0  0  0  0  0  0
  1  2  2  0
  2  3  1  0
  2 21  1  0
  3  4  1  0
  3 25  1  6
  3 26  1  0
  4  5  1  0
 12  4  1  6
  5  6  1  0
  5 27  1  1
  5 28  1  0
  6 11  2  0
  6  7  1  0
  7  8  2  0
  7 29  1  0
  8  9  1  0
  8 30  1  0
  9 10  2  0
  9 31  1  0
 10 11  1  0
 10 32  1  0
 11 33  1  0
 12 13  2  0
 12 14  2  0
 12 15  1  0
 15 20  2  0
 15 16  1  0
 16 17  2  0
 16 34  1  0
 17 18  1  0
 17 35  1  0
 18 19  2  0
 18 36  1  0
 19 20  1  0
 19 37  1  0
 20 38  1  0
 21 22  1  0
 21 39  1  0
 22 24  1  0
 22 23  1  0
 22 40  1  6
 23 24  1  0
 23 41  1  1
 23 42  1  0
 24 43  1  1
 24 44  1  0
M  END
$$$$
