ZINC000028207661
     RDKit          3D

 56 57  0  0  0  0  0  0  0  0999 V2000
    0.3735   -0.8776    1.1805 C   0  0  1  0  0  0  0  0  0  0  0  0
    0.0042    0.0165   -0.0049 C   0  0  1  0  0  0  0  0  0  0  0  0
    0.7089   -0.4746   -1.2431 C   0  0  0  0  0  0  0  0  0  0  0  0
    1.9652    0.0090   -1.5596 C   0  0  0  0  0  0  0  0  0  0  0  0
    2.6137   -0.4390   -2.6937 C   0  0  0  0  0  0  0  0  0  0  0  0
    2.0030   -1.3765   -3.5163 C   0  0  0  0  0  0  0  0  0  0  0  0
    2.6576   -1.8328   -4.6658 N   0  0  0  0  0  0  0  0  0  0  0  0
    4.0004   -1.9481   -4.6757 C   0  0  0  0  0  0  0  0  0  0  0  0
    4.6337   -1.7487   -3.6607 O   0  0  0  0  0  0  0  0  0  0  0  0
    4.7149   -2.3248   -5.9479 C   0  0  1  0  0  0  0  0  0  0  0  0
    6.1219   -2.3825   -5.7048 O   0  0  0  0  0  0  0  0  0  0  0  0
    6.9168   -2.7112   -6.7570 C   0  0  0  0  0  0  0  0  0  0  0  0
    6.3548   -2.9671   -7.9990 C   0  0  0  0  0  0  0  0  0  0  0  0
    7.1652   -3.3006   -9.0672 C   0  0  0  0  0  0  0  0  0  0  0  0
    8.5351   -3.3798   -8.8988 C   0  0  0  0  0  0  0  0  0  0  0  0
    9.5657   -3.8059  -10.2629 S   0  0  1  0  0  0  0  0  0  0  0  0
   10.7621   -4.3382   -9.7110 O   0  0  0  0  0  0  0  0  0  0  0  0
    8.7460   -4.5212  -11.1771 O   0  0  0  0  0  0  0  0  0  0  0  0
    9.9871   -2.3939  -11.0187 N   0  0  0  0  0  0  0  0  0  0  0  0
   11.1969   -1.6765  -10.6089 C   0  0  1  0  0  0  0  0  0  0  0  0
   12.3617   -2.0820  -11.5142 C   0  0  1  0  0  0  0  0  0  0  0  0
    9.1502   -1.8623  -12.0972 C   0  0  1  0  0  0  0  0  0  0  0  0
    8.1706   -0.8363  -11.5240 C   0  0  1  0  0  0  0  0  0  0  0  0
    9.0979   -3.1246   -7.6617 C   0  0  0  0  0  0  0  0  0  0  0  0
    8.2925   -2.7857   -6.5919 C   0  0  0  0  0  0  0  0  0  0  0  0
    8.9065   -2.5073   -5.2441 C   0  0  1  0  0  0  0  0  0  0  0  0
    0.7415   -1.8605   -3.1955 C   0  0  0  0  0  0  0  0  0  0  0  0
    0.1004   -1.4120   -2.0574 C   0  0  0  0  0  0  0  0  0  0  0  0
    0.0683   -1.9029    0.9713 H   0  0  0  0  0  0  0  0  0  0  0  0
    1.4514   -0.8444    1.3387 H   0  0  0  0  0  0  0  0  0  0  0  0
   -0.1363   -0.5224    2.0761 H   0  0  0  0  0  0  0  0  0  0  0  0
   -1.0738   -0.0167   -0.1630 H   0  0  0  0  0  0  0  0  0  0  0  0
    0.3093    1.0418    0.2044 H   0  0  0  0  0  0  0  0  0  0  0  0
    2.4396    0.7380   -0.9194 H   0  0  0  0  0  0  0  0  0  0  0  0
    3.5946   -0.0604   -2.9407 H   0  0  0  0  0  0  0  0  0  0  0  0
    2.1449   -2.0661   -5.4555 H   0  0  0  0  0  0  0  0  0  0  0  0
    4.3644   -3.2998   -6.2865 H   0  0  0  0  0  0  0  0  0  0  0  0
    4.5091   -1.5782   -6.7150 H   0  0  0  0  0  0  0  0  0  0  0  0
    5.2846   -2.9061   -8.1309 H   0  0  0  0  0  0  0  0  0  0  0  0
    6.7281   -3.4999  -10.0345 H   0  0  0  0  0  0  0  0  0  0  0  0
   11.0285   -0.6029  -10.6924 H   0  0  0  0  0  0  0  0  0  0  0  0
   11.4356   -1.9275   -9.5754 H   0  0  0  0  0  0  0  0  0  0  0  0
   12.5301   -3.1557  -11.4306 H   0  0  0  0  0  0  0  0  0  0  0  0
   12.1231   -1.8311  -12.5477 H   0  0  0  0  0  0  0  0  0  0  0  0
   13.2618   -1.5483  -11.2093 H   0  0  0  0  0  0  0  0  0  0  0  0
    9.7822   -1.3830  -12.8449 H   0  0  0  0  0  0  0  0  0  0  0  0
    8.5935   -2.6770  -12.5603 H   0  0  0  0  0  0  0  0  0  0  0  0
    7.5479   -0.4407  -12.3264 H   0  0  0  0  0  0  0  0  0  0  0  0
    7.5387   -1.3156  -10.7763 H   0  0  0  0  0  0  0  0  0  0  0  0
    8.7274   -0.0216  -11.0609 H   0  0  0  0  0  0  0  0  0  0  0  0
   10.1683   -3.1868   -7.5327 H   0  0  0  0  0  0  0  0  0  0  0  0
    9.1453   -1.4467   -5.1657 H   0  0  0  0  0  0  0  0  0  0  0  0
    8.2003   -2.7798   -4.4599 H   0  0  0  0  0  0  0  0  0  0  0  0
    9.8182   -3.0942   -5.1320 H   0  0  0  0  0  0  0  0  0  0  0  0
    0.2640   -2.5896   -3.8333 H   0  0  0  0  0  0  0  0  0  0  0  0
   -0.8807   -1.7880   -1.8073 H   0  0  0  0  0  0  0  0  0  0  0  0
  1  2  1  0
  1 29  1  6
  1 30  1  0
  1 31  1  0
  2  3  1  0
  2 32  1  6
  2 33  1  0
  3 28  2  0
  3  4  1  0
  4  5  2  0
  4 34  1  0
  5  6  1  0
  5 35  1  0
  6  7  1  0
  6 27  2  0
  7  8  1  0
  7 36  1  0
  8  9  2  0
  8 10  1  0
 10 11  1  0
 10 37  1  6
 10 38  1  0
 11 12  1  0
 12 25  2  0
 12 13  1  0
 13 14  2  0
 13 39  1  0
 14 15  1  0
 14 40  1  0
 15 16  1  0
 15 24  2  0
 16 17  2  0
 16 18  2  0
 16 19  1  6
 19 20  1  0
 19 22  1  0
 20 21  1  0
 20 41  1  1
 20 42  1  0
 21 43  1  6
 21 44  1  0
 21 45  1  0
 22 23  1  0
 22 46  1  6
 22 47  1  0
 23 48  1  6
 23 49  1  0
 23 50  1  0
 24 25  1  0
 24 51  1  0
 25 26  1  0
 26 52  1  6
 26 53  1  0
 26 54  1  0
 27 28  1  0
 27 55  1  0
 28 56  1  0
M  END
$$$$
