ZINC000012648714
     RDKit          3D

 57 59  0  0  1  0  0  0  0  0999 V2000
   -0.0187    1.5258    0.0104 C   0  0  1  0  0  0  0  0  0  0  0  0
    0.0021   -0.0041    0.0020 C   0  0  2  0  0  0  0  0  0  0  0  0
    0.5122   -0.3561   -0.8946 H   0  0  0  0  0  0  0  0  0  0  0  0
   -1.4334   -0.5345    0.0145 C   0  0  1  0  0  0  0  0  0  0  0  0
   -1.4142   -2.0642   -0.0270 C   0  0  1  0  0  0  0  0  0  0  0  0
   -2.4371   -2.4406   -0.0417 H   0  0  0  0  0  0  0  0  0  0  0  0
   -0.6799   -2.5317   -1.2853 C   0  0  1  0  0  0  0  0  0  0  0  0
   -0.6916   -2.5957    1.2148 C   0  0  1  0  0  0  0  0  0  0  0  0
    0.6392   -1.9773    1.2884 N   0  0  0  0  0  0  0  0  0  0  0  0
    1.9987   -2.9138    1.4182 S   0  0  1  0  0  0  0  0  0  0  0  0
    2.9973   -2.0921    2.0072 O   0  0  0  0  0  0  0  0  0  0  0  0
    1.5814   -4.1517    1.9775 O   0  0  0  0  0  0  0  0  0  0  0  0
    2.5469   -3.2671   -0.2187 C   0  0  0  0  0  0  0  0  0  0  0  0
    2.0770   -4.3911   -0.8748 C   0  0  0  0  0  0  0  0  0  0  0  0
    2.5020   -4.6736   -2.1563 C   0  0  0  0  0  0  0  0  0  0  0  0
    3.4085   -3.8224   -2.7914 C   0  0  0  0  0  0  0  0  0  0  0  0
    3.8677   -4.1184   -4.1639 C   0  0  0  0  0  0  0  0  0  0  0  0
    3.4566   -5.1041   -4.7426 O   0  0  0  0  0  0  0  0  0  0  0  0
    4.7423   -3.2951   -4.7738 O   0  0  0  0  0  0  0  0  0  0  0  0
    5.1497   -3.6480   -6.1220 C   0  0  1  0  0  0  0  0  0  0  0  0
    6.1229   -2.6196   -6.6381 C   0  0  0  0  0  0  0  0  0  0  0  0
    6.4416   -1.6818   -5.9387 O   0  0  0  0  0  0  0  0  0  0  0  0
    6.6864   -2.7535   -7.9910 C   0  0  0  0  0  0  0  0  0  0  0  0
    6.3169   -3.8304   -8.8028 C   0  0  0  0  0  0  0  0  0  0  0  0
    6.8493   -3.9489  -10.0694 C   0  0  0  0  0  0  0  0  0  0  0  0
    7.7474   -3.0058  -10.5374 C   0  0  0  0  0  0  0  0  0  0  0  0
    8.1181   -1.9369   -9.7399 C   0  0  0  0  0  0  0  0  0  0  0  0
    9.0969   -0.9155  -10.2594 C   0  0  1  0  0  0  0  0  0  0  0  0
    9.4851   -1.2603  -11.5585 F   0  0  0  0  0  0  0  0  0  0  0  0
    8.4917    0.3457  -10.2727 F   0  0  0  0  0  0  0  0  0  0  0  0
   10.2225   -0.8839   -9.4292 F   0  0  0  0  0  0  0  0  0  0  0  0
    7.5899   -1.8010   -8.4737 C   0  0  0  0  0  0  0  0  0  0  0  0
    3.8786   -2.6900   -2.1235 C   0  0  0  0  0  0  0  0  0  0  0  0
    3.4410   -2.4163   -0.8442 C   0  0  0  0  0  0  0  0  0  0  0  0
    0.7415   -0.5122    1.2437 C   0  0  1  0  0  0  0  0  0  0  0  0
    1.0039    1.9031    0.0027 H   0  0  0  0  0  0  0  0  0  0  0  0
   -0.5459    1.8868   -0.8726 H   0  0  0  0  0  0  0  0  0  0  0  0
   -0.5289    1.8773    0.9072 H   0  0  0  0  0  0  0  0  0  0  0  0
   -1.9355   -0.2021    0.9231 H   0  0  0  0  0  0  0  0  0  0  0  0
   -1.9686   -0.1542   -0.8556 H   0  0  0  0  0  0  0  0  0  0  0  0
    0.3432   -2.1560   -1.2696 H   0  0  0  0  0  0  0  0  0  0  0  0
   -0.6665   -3.6212   -1.3144 H   0  0  0  0  0  0  0  0  0  0  0  0
   -1.1933   -2.1509   -2.1682 H   0  0  0  0  0  0  0  0  0  0  0  0
   -1.2630   -2.3406    2.1072 H   0  0  0  0  0  0  0  0  0  0  0  0
   -0.5879   -3.6783    1.1418 H   0  0  0  0  0  0  0  0  0  0  0  0
    1.3761   -5.0488   -0.3823 H   0  0  0  0  0  0  0  0  0  0  0  0
    2.1347   -5.5514   -2.6672 H   0  0  0  0  0  0  0  0  0  0  0  0
    5.6274   -4.6277   -6.1125 H   0  0  0  0  0  0  0  0  0  0  0  0
    4.2740   -3.6771   -6.7703 H   0  0  0  0  0  0  0  0  0  0  0  0
    5.6166   -4.5676   -8.4387 H   0  0  0  0  0  0  0  0  0  0  0  0
    6.5650   -4.7801  -10.6976 H   0  0  0  0  0  0  0  0  0  0  0  0
    8.1615   -3.1045  -11.5299 H   0  0  0  0  0  0  0  0  0  0  0  0
    7.8798   -0.9663   -7.8527 H   0  0  0  0  0  0  0  0  0  0  0  0
    4.5799   -2.0274   -2.6089 H   0  0  0  0  0  0  0  0  0  0  0  0
    3.8038   -1.5407   -0.3264 H   0  0  0  0  0  0  0  0  0  0  0  0
    1.7904   -0.2207    1.1903 H   0  0  0  0  0  0  0  0  0  0  0  0
    0.2870   -0.0867    2.1384 H   0  0  0  0  0  0  0  0  0  0  0  0
  1  2  1  0
  1 36  1  6
  1 37  1  0
  1 38  1  0
  2  3  1  6
  2 35  1  0
  2  4  1  0
  4  5  1  0
  4 39  1  1
  4 40  1  0
  5  6  1  6
  5  7  1  0
  5  8  1  0
  7 41  1  1
  7 42  1  0
  7 43  1  0
  8  9  1  0
  8 44  1  1
  8 45  1  0
 10  9  1  6
  9 35  1  0
 10 11  2  0
 10 12  2  0
 10 13  1  0
 13 34  2  0
 13 14  1  0
 14 15  2  0
 14 46  1  0
 15 16  1  0
 15 47  1  0
 16 17  1  0
 16 33  2  0
 17 18  2  0
 17 19  1  0
 19 20  1  0
 20 21  1  0
 20 48  1  1
 20 49  1  0
 21 22  2  0
 21 23  1  0
 23 32  2  0
 23 24  1  0
 24 25  2  0
 24 50  1  0
 25 26  1  0
 25 51  1  0
 26 27  2  0
 26 52  1  0
 27 28  1  0
 27 32  1  0
 28 29  1  6
 28 30  1  0
 28 31  1  0
 32 53  1  0
 33 34  1  0
 33 54  1  0
 34 55  1  0
 35 56  1  6
 35 57  1  0
M  END
$$$$
