ZINC000022227067
     RDKit          3D

 53 54  0  0  0  0  0  0  0  0999 V2000
   -0.0187    1.5258    0.0104 C   0  0  1  0  0  0  0  0  0  0  0  0
    0.0021   -0.0041    0.0020 C   0  0  1  0  0  0  0  0  0  0  0  0
    0.6878   -0.4765   -1.2033 N   0  0  0  0  0  0  0  0  0  0  0  0
    2.1478   -0.5966   -1.2159 C   0  0  1  0  0  0  0  0  0  0  0  0
    2.5532   -1.9514   -0.6319 C   0  0  1  0  0  0  0  0  0  0  0  0
   -0.1875   -0.8749   -2.5515 S   0  0  1  0  0  0  0  0  0  0  0  0
    0.6166   -1.7761   -3.3001 O   0  0  0  0  0  0  0  0  0  0  0  0
   -1.4970   -1.1925   -2.1004 O   0  0  0  0  0  0  0  0  0  0  0  0
   -0.3375    0.5853   -3.5262 C   0  0  0  0  0  0  0  0  0  0  0  0
   -1.4057    1.4405   -3.3300 C   0  0  0  0  0  0  0  0  0  0  0  0
   -1.5234    2.5861   -4.0947 C   0  0  0  0  0  0  0  0  0  0  0  0
   -0.5727    2.8767   -5.0552 C   0  0  0  0  0  0  0  0  0  0  0  0
   -0.7013    4.1253   -5.8892 C   0  0  1  0  0  0  0  0  0  0  0  0
    0.0204    5.2805   -5.1924 C   0  0  1  0  0  0  0  0  0  0  0  0
   -0.1047    6.4943   -6.0031 N   0  0  0  0  0  0  0  0  0  0  0  0
    0.4570    7.6455   -5.5839 C   0  0  0  0  0  0  0  0  0  0  0  0
    1.0659    7.6766   -4.5354 O   0  0  0  0  0  0  0  0  0  0  0  0
    0.3284    8.8941   -6.4178 C   0  0  1  0  0  0  0  0  0  0  0  0
    1.0024    9.9731   -5.7670 O   0  0  0  0  0  0  0  0  0  0  0  0
    0.9819   11.1799   -6.3918 C   0  0  0  0  0  0  0  0  0  0  0  0
    0.3216   11.3239   -7.6034 C   0  0  0  0  0  0  0  0  0  0  0  0
    0.3018   12.5517   -8.2362 C   0  0  0  0  0  0  0  0  0  0  0  0
    0.9397   13.6364   -7.6632 C   0  0  0  0  0  0  0  0  0  0  0  0
    1.5988   13.4954   -6.4560 C   0  0  0  0  0  0  0  0  0  0  0  0
    1.6163   12.2711   -5.8162 C   0  0  0  0  0  0  0  0  0  0  0  0
    0.4962    2.0221   -5.2504 C   0  0  0  0  0  0  0  0  0  0  0  0
    0.6160    0.8786   -4.4831 C   0  0  0  0  0  0  0  0  0  0  0  0
    1.0039    1.9031    0.0027 H   0  0  0  0  0  0  0  0  0  0  0  0
   -0.5459    1.8868   -0.8726 H   0  0  0  0  0  0  0  0  0  0  0  0
   -0.5289    1.8773    0.9072 H   0  0  0  0  0  0  0  0  0  0  0  0
    0.5293   -0.3651    0.8851 H   0  0  0  0  0  0  0  0  0  0  0  0
   -1.0205   -0.3814    0.0098 H   0  0  0  0  0  0  0  0  0  0  0  0
    2.5098   -0.5199   -2.2412 H   0  0  0  0  0  0  0  0  0  0  0  0
    2.5833    0.2026   -0.6162 H   0  0  0  0  0  0  0  0  0  0  0  0
    2.1912   -2.0280    0.3934 H   0  0  0  0  0  0  0  0  0  0  0  0
    2.1177   -2.7506   -1.2316 H   0  0  0  0  0  0  0  0  0  0  0  0
    3.6395   -2.0407   -0.6413 H   0  0  0  0  0  0  0  0  0  0  0  0
   -2.1485    1.2135   -2.5796 H   0  0  0  0  0  0  0  0  0  0  0  0
   -2.3583    3.2539   -3.9419 H   0  0  0  0  0  0  0  0  0  0  0  0
   -0.2543    3.9556   -6.8687 H   0  0  0  0  0  0  0  0  0  0  0  0
   -1.7555    4.3750   -6.0092 H   0  0  0  0  0  0  0  0  0  0  0  0
   -0.4267    5.4502   -4.2129 H   0  0  0  0  0  0  0  0  0  0  0  0
    1.0745    5.0308   -5.0723 H   0  0  0  0  0  0  0  0  0  0  0  0
   -0.5916    6.4695   -6.8416 H   0  0  0  0  0  0  0  0  0  0  0  0
    0.7754    8.7245   -7.3973 H   0  0  0  0  0  0  0  0  0  0  0  0
   -0.7258    9.1439   -6.5379 H   0  0  0  0  0  0  0  0  0  0  0  0
   -0.1762   10.4767   -8.0516 H   0  0  0  0  0  0  0  0  0  0  0  0
   -0.2121   12.6643   -9.1794 H   0  0  0  0  0  0  0  0  0  0  0  0
    0.9234   14.5954   -8.1597 H   0  0  0  0  0  0  0  0  0  0  0  0
    2.0966   14.3441   -6.0107 H   0  0  0  0  0  0  0  0  0  0  0  0
    2.1313   12.1615   -4.8732 H   0  0  0  0  0  0  0  0  0  0  0  0
    1.2392    2.2494   -6.0006 H   0  0  0  0  0  0  0  0  0  0  0  0
    1.4511    0.2109   -4.6357 H   0  0  0  0  0  0  0  0  0  0  0  0
  1  2  1  0
  1 28  1  6
  1 29  1  0
  1 30  1  0
  2  3  1  0
  2 31  1  1
  2 32  1  0
  3  4  1  0
  6  3  1  1
  4  5  1  0
  4 33  1  6
  4 34  1  0
  5 35  1  1
  5 36  1  0
  5 37  1  0
  6  7  2  0
  6  8  2  0
  6  9  1  0
  9 27  2  0
  9 10  1  0
 10 11  2  0
 10 38  1  0
 11 12  1  0
 11 39  1  0
 12 13  1  0
 12 26  2  0
 13 14  1  0
 13 40  1  6
 13 41  1  0
 14 15  1  0
 14 42  1  1
 14 43  1  0
 15 16  1  0
 15 44  1  0
 16 17  2  0
 16 18  1  0
 18 19  1  0
 18 45  1  6
 18 46  1  0
 19 20  1  0
 20 25  2  0
 20 21  1  0
 21 22  2  0
 21 47  1  0
 22 23  1  0
 22 48  1  0
 23 24  2  0
 23 49  1  0
 24 25  1  0
 24 50  1  0
 25 51  1  0
 26 27  1  0
 26 52  1  0
 27 53  1  0
M  END
$$$$
