ZINC000026569933
     RDKit          3D

 47 49  0  0  1  0  0  0  0  0999 V2000
    3.5188   -9.6456    2.5575 C   0  0  1  0  0  0  0  0  0  0  0  0
    3.4896   -8.2823    1.9159 C   0  0  0  0  0  0  0  0  0  0  0  0
    4.5177   -7.7028    1.2942 C   0  0  0  0  0  0  0  0  0  0  0  0
    4.2548   -6.4446    0.7806 C   0  0  0  0  0  0  0  0  0  0  0  0
    3.0131   -6.0022    0.9853 C   0  0  0  0  0  0  0  0  0  0  0  0
    2.3885   -4.4444    0.4487 S   0  0  1  0  0  0  0  0  0  0  0  0
    1.2140   -4.1993    1.2101 O   0  0  0  0  0  0  0  0  0  0  0  0
    3.4968   -3.5555    0.4216 O   0  0  0  0  0  0  0  0  0  0  0  0
    1.8976   -4.6279   -1.1222 N   0  0  0  0  0  0  0  0  0  0  0  0
    0.5824   -5.1313   -1.5581 C   0  0  1  0  0  0  0  0  0  0  0  0
    0.3848   -4.5461   -2.9787 C   0  0  1  0  0  0  0  0  0  0  0  0
    1.8264   -4.6169   -3.5481 C   0  0  1  0  0  0  0  0  0  0  0  0
    2.6990   -4.3097   -2.3130 C   0  0  1  0  0  0  0  0  0  0  0  0
    3.5944   -4.9311   -2.3279 H   0  0  0  0  0  0  0  0  0  0  0  0
    3.0861   -2.8533   -2.3084 C   0  0  0  0  0  0  0  0  0  0  0  0
    2.4231   -2.0516   -1.6851 O   0  0  0  0  0  0  0  0  0  0  0  0
    4.1692   -2.4417   -2.9969 N   0  0  0  0  0  0  0  0  0  0  0  0
    4.5455   -1.0259   -2.9924 C   0  0  1  0  0  0  0  0  0  0  0  0
    5.7823   -0.8322   -3.8315 C   0  0  0  0  0  0  0  0  0  0  0  0
    7.0333   -0.9338   -3.2523 C   0  0  0  0  0  0  0  0  0  0  0  0
    8.1678   -0.7561   -4.0220 C   0  0  0  0  0  0  0  0  0  0  0  0
    8.0511   -0.4773   -5.3709 C   0  0  0  0  0  0  0  0  0  0  0  0
    9.2878   -0.2831   -6.2099 C   0  0  1  0  0  0  0  0  0  0  0  0
    9.6911   -1.5142   -6.7381 F   0  0  0  0  0  0  0  0  0  0  0  0
    9.0078    0.6036   -7.2551 F   0  0  0  0  0  0  0  0  0  0  0  0
   10.3128    0.2415   -5.4153 F   0  0  0  0  0  0  0  0  0  0  0  0
    6.8001   -0.3771   -5.9504 C   0  0  0  0  0  0  0  0  0  0  0  0
    5.6657   -0.5586   -5.1815 C   0  0  0  0  0  0  0  0  0  0  0  0
    2.0925   -7.2150    1.8657 S   0  0  0  0  0  0  0  0  0  0  0  0
    2.5410   -9.8668    2.9853 H   0  0  0  0  0  0  0  0  0  0  0  0
    3.7646  -10.3957    1.8058 H   0  0  0  0  0  0  0  0  0  0  0  0
    4.2719   -9.6603    3.3453 H   0  0  0  0  0  0  0  0  0  0  0  0
    5.4823   -8.1792    1.1990 H   0  0  0  0  0  0  0  0  0  0  0  0
    4.9987   -5.8648    0.2544 H   0  0  0  0  0  0  0  0  0  0  0  0
    0.5859   -6.2208   -1.5937 H   0  0  0  0  0  0  0  0  0  0  0  0
   -0.2009   -4.7754   -0.8889 H   0  0  0  0  0  0  0  0  0  0  0  0
   -0.2972   -5.1629   -3.5640 H   0  0  0  0  0  0  0  0  0  0  0  0
    0.0336   -3.5153   -2.9313 H   0  0  0  0  0  0  0  0  0  0  0  0
    2.0389   -5.6127   -3.9370 H   0  0  0  0  0  0  0  0  0  0  0  0
    1.9739   -3.8609   -4.3193 H   0  0  0  0  0  0  0  0  0  0  0  0
    4.6995   -3.0830   -3.4954 H   0  0  0  0  0  0  0  0  0  0  0  0
    3.7300   -0.4319   -3.4048 H   0  0  0  0  0  0  0  0  0  0  0  0
    4.7466   -0.7066   -1.9698 H   0  0  0  0  0  0  0  0  0  0  0  0
    7.1244   -1.1516   -2.1985 H   0  0  0  0  0  0  0  0  0  0  0  0
    9.1452   -0.8347   -3.5694 H   0  0  0  0  0  0  0  0  0  0  0  0
    6.7090   -0.1597   -7.0043 H   0  0  0  0  0  0  0  0  0  0  0  0
    4.6883   -0.4803   -5.6342 H   0  0  0  0  0  0  0  0  0  0  0  0
  1  2  1  0
  1 30  1  1
  1 31  1  0
  1 32  1  0
  2 29  1  0
  2  3  2  0
  3  4  1  0
  3 33  1  0
  4  5  2  0
  4 34  1  0
  5  6  1  0
  5 29  1  0
  6  7  2  0
  6  8  2  0
  6  9  1  6
  9 13  1  0
  9 10  1  0
 10 11  1  0
 10 35  1  6
 10 36  1  0
 11 12  1  0
 11 37  1  6
 11 38  1  0
 12 13  1  0
 12 39  1  6
 12 40  1  0
 13 14  1  6
 13 15  1  0
 15 16  2  0
 15 17  1  0
 17 18  1  0
 17 41  1  0
 18 19  1  0
 18 42  1  6
 18 43  1  0
 19 28  2  0
 19 20  1  0
 20 21  2  0
 20 44  1  0
 21 22  1  0
 21 45  1  0
 22 23  1  0
 22 27  2  0
 23 24  1  6
 23 25  1  0
 23 26  1  0
 27 28  1  0
 27 46  1  0
 28 47  1  0
M  END
$$$$
