ZINC000408971394
     RDKit          3D

 50 51  0  0  0  0  0  0  0  0999 V2000
   -0.0173    1.4248    0.0099 C   0  0  1  0  0  0  0  0  0  0  0  0
    0.0021   -0.0041    0.0020 O   0  0  0  0  0  0  0  0  0  0  0  0
   -1.2953   -0.6030    0.0112 C   0  0  1  0  0  0  0  0  0  0  0  0
   -1.1538   -2.1264    0.0017 C   0  0  1  0  0  0  0  0  0  0  0  0
   -2.5429   -2.7677    0.0115 C   0  0  1  0  0  0  0  0  0  0  0  0
   -2.4075   -4.2264    0.0023 N   0  0  0  0  0  0  0  0  0  0  0  0
   -3.5073   -5.0054    0.0087 C   0  0  0  0  0  0  0  0  0  0  0  0
   -4.6092   -4.4987    0.0219 O   0  0  0  0  0  0  0  0  0  0  0  0
   -3.3680   -6.5059   -0.0007 C   0  0  1  0  0  0  0  0  0  0  0  0
   -4.6980   -7.1199    0.0087 N   0  0  0  0  0  0  0  0  0  0  0  0
   -5.4215   -7.3197   -1.2495 C   0  0  1  0  0  0  0  0  0  0  0  0
   -4.9853   -8.6176   -1.8791 C   0  0  0  0  0  0  0  0  0  0  0  0
   -3.9148   -8.6358   -2.7536 C   0  0  0  0  0  0  0  0  0  0  0  0
   -3.5143   -9.8258   -3.3313 C   0  0  0  0  0  0  0  0  0  0  0  0
   -4.1850  -10.9989   -3.0343 C   0  0  0  0  0  0  0  0  0  0  0  0
   -3.6822  -12.4941   -3.7591 Cl  0  0  0  0  0  0  0  0  0  0  0  0
   -5.2563  -10.9800   -2.1589 C   0  0  0  0  0  0  0  0  0  0  0  0
   -5.6523   -9.7903   -1.5775 C   0  0  0  0  0  0  0  0  0  0  0  0
   -5.3838   -7.5881    1.4415 S   0  0  1  0  0  0  0  0  0  0  0  0
   -6.2213   -8.6963    1.1423 O   0  0  0  0  0  0  0  0  0  0  0  0
   -4.3286   -7.6455    2.3915 O   0  0  0  0  0  0  0  0  0  0  0  0
   -6.4497   -6.2845    1.9601 C   0  0  0  0  0  0  0  0  0  0  0  0
   -5.9596   -5.2670    2.7572 C   0  0  0  0  0  0  0  0  0  0  0  0
   -6.7953   -4.2441    3.1644 C   0  0  0  0  0  0  0  0  0  0  0  0
   -8.1226   -4.2388    2.7740 C   0  0  0  0  0  0  0  0  0  0  0  0
   -9.1727   -2.9541    3.2845 Cl  0  0  0  0  0  0  0  0  0  0  0  0
   -8.6125   -5.2574    1.9762 C   0  0  0  0  0  0  0  0  0  0  0  0
   -7.7745   -6.2767    1.5650 C   0  0  0  0  0  0  0  0  0  0  0  0
    1.0053    1.8021    0.0021 H   0  0  0  0  0  0  0  0  0  0  0  0
   -0.5445    1.7859   -0.8732 H   0  0  0  0  0  0  0  0  0  0  0  0
   -0.5275    1.7763    0.9067 H   0  0  0  0  0  0  0  0  0  0  0  0
   -1.8320   -0.2936    0.9080 H   0  0  0  0  0  0  0  0  0  0  0  0
   -1.8490   -0.2840   -0.8718 H   0  0  0  0  0  0  0  0  0  0  0  0
   -0.6171   -2.4359   -0.8952 H   0  0  0  0  0  0  0  0  0  0  0  0
   -0.6001   -2.4454    0.8847 H   0  0  0  0  0  0  0  0  0  0  0  0
   -3.0796   -2.4582    0.9083 H   0  0  0  0  0  0  0  0  0  0  0  0
   -3.0966   -2.4487   -0.8716 H   0  0  0  0  0  0  0  0  0  0  0  0
   -1.5262   -4.6316   -0.0082 H   0  0  0  0  0  0  0  0  0  0  0  0
   -2.8312   -6.8153   -0.8975 H   0  0  0  0  0  0  0  0  0  0  0  0
   -2.8143   -6.8249    0.8823 H   0  0  0  0  0  0  0  0  0  0  0  0
   -6.4927   -7.3541   -1.0511 H   0  0  0  0  0  0  0  0  0  0  0  0
   -5.2040   -6.4953   -1.9285 H   0  0  0  0  0  0  0  0  0  0  0  0
   -3.3916   -7.7200   -2.9857 H   0  0  0  0  0  0  0  0  0  0  0  0
   -2.6782   -9.8399   -4.0148 H   0  0  0  0  0  0  0  0  0  0  0  0
   -5.7804  -11.8954   -1.9269 H   0  0  0  0  0  0  0  0  0  0  0  0
   -6.4883   -9.7755   -0.8939 H   0  0  0  0  0  0  0  0  0  0  0  0
   -4.9236   -5.2714    3.0622 H   0  0  0  0  0  0  0  0  0  0  0  0
   -6.4124   -3.4494    3.7874 H   0  0  0  0  0  0  0  0  0  0  0  0
   -9.6486   -5.2539    1.6714 H   0  0  0  0  0  0  0  0  0  0  0  0
   -8.1567   -7.0717    0.9420 H   0  0  0  0  0  0  0  0  0  0  0  0
  1  2  1  0
  1 29  1  6
  1 30  1  0
  1 31  1  0
  2  3  1  0
  3  4  1  0
  3 32  1  1
  3 33  1  0
  4  5  1  0
  4 34  1  6
  4 35  1  0
  5  6  1  0
  5 36  1  1
  5 37  1  0
  6  7  1  0
  6 38  1  0
  7  8  2  0
  7  9  1  0
  9 10  1  0
  9 39  1  6
  9 40  1  0
 10 11  1  0
 19 10  1  6
 11 12  1  0
 11 41  1  1
 11 42  1  0
 12 18  2  0
 12 13  1  0
 13 14  2  0
 13 43  1  0
 14 15  1  0
 14 44  1  0
 15 16  1  0
 15 17  2  0
 17 18  1  0
 17 45  1  0
 18 46  1  0
 19 20  2  0
 19 21  2  0
 19 22  1  0
 22 28  2  0
 22 23  1  0
 23 24  2  0
 23 47  1  0
 24 25  1  0
 24 48  1  0
 25 26  1  0
 25 27  2  0
 27 28  1  0
 27 49  1  0
 28 50  1  0
M  END
$$$$
