ZINC000027462450
     RDKit          3D

 54 54  0  0  1  0  0  0  0  0999 V2000
   -0.0187    1.5258    0.0104 C   0  0  1  0  0  0  0  0  0  0  0  0
    0.0021   -0.0041    0.0020 C   0  0  1  0  0  0  0  0  0  0  0  0
    0.7182   -0.4975   -1.2568 C   0  0  1  0  0  0  0  0  0  0  0  0
    0.7390   -2.0273   -1.2652 C   0  0  1  0  0  0  0  0  0  0  0  0
   -0.2789   -2.4050   -1.1679 H   0  0  0  0  0  0  0  0  0  0  0  0
    1.3429   -2.5219   -2.5810 C   0  0  1  0  0  0  0  0  0  0  0  0
    1.5485   -2.5109   -0.1440 N   0  0  0  0  0  0  0  0  0  0  0  0
    1.3281   -3.7388    0.3660 C   0  0  0  0  0  0  0  0  0  0  0  0
    0.4596   -4.4434   -0.1031 O   0  0  0  0  0  0  0  0  0  0  0  0
    2.1609   -4.2362    1.5193 C   0  0  1  0  0  0  0  0  0  0  0  0
    1.7101   -5.6472    1.9027 C   0  0  1  0  0  0  0  0  0  0  0  0
    2.5429   -6.1446    3.0560 C   0  0  0  0  0  0  0  0  0  0  0  0
    3.7188   -6.8299    2.8144 C   0  0  0  0  0  0  0  0  0  0  0  0
    4.4827   -7.2862    3.8723 C   0  0  0  0  0  0  0  0  0  0  0  0
    4.0709   -7.0568    5.1718 C   0  0  0  0  0  0  0  0  0  0  0  0
    5.0442   -7.6389    6.5202 S   0  0  1  0  0  0  0  0  0  0  0  0
    4.1623   -7.7634    7.6275 O   0  0  0  0  0  0  0  0  0  0  0  0
    5.8194   -8.7192    6.0187 O   0  0  0  0  0  0  0  0  0  0  0  0
    6.1143   -6.4359    6.9077 N   0  0  0  0  0  0  0  0  0  0  0  0
    5.7464   -5.4186    7.8957 C   0  0  1  0  0  0  0  0  0  0  0  0
    6.2738   -5.8300    9.2718 C   0  0  1  0  0  0  0  0  0  0  0  0
    7.4287   -6.3889    6.2625 C   0  0  1  0  0  0  0  0  0  0  0  0
    7.3716   -5.4489    5.0567 C   0  0  1  0  0  0  0  0  0  0  0  0
    2.8956   -6.3703    5.4134 C   0  0  0  0  0  0  0  0  0  0  0  0
    2.1337   -5.9107    4.3555 C   0  0  0  0  0  0  0  0  0  0  0  0
    1.0039    1.9031    0.0027 H   0  0  0  0  0  0  0  0  0  0  0  0
   -0.5459    1.8868   -0.8726 H   0  0  0  0  0  0  0  0  0  0  0  0
   -0.5289    1.8773    0.9072 H   0  0  0  0  0  0  0  0  0  0  0  0
    0.5293   -0.3651    0.8851 H   0  0  0  0  0  0  0  0  0  0  0  0
   -1.0205   -0.3814    0.0098 H   0  0  0  0  0  0  0  0  0  0  0  0
    0.1910   -0.1364   -2.1398 H   0  0  0  0  0  0  0  0  0  0  0  0
    1.7408   -0.1202   -1.2645 H   0  0  0  0  0  0  0  0  0  0  0  0
    2.3608   -2.1442   -2.6783 H   0  0  0  0  0  0  0  0  0  0  0  0
    1.3577   -3.6118   -2.5870 H   0  0  0  0  0  0  0  0  0  0  0  0
    0.7406   -2.1622   -3.4152 H   0  0  0  0  0  0  0  0  0  0  0  0
    2.2431   -1.9473    0.2312 H   0  0  0  0  0  0  0  0  0  0  0  0
    3.2108   -4.2570    1.2271 H   0  0  0  0  0  0  0  0  0  0  0  0
    2.0345   -3.5700    2.3727 H   0  0  0  0  0  0  0  0  0  0  0  0
    0.6602   -5.6264    2.1950 H   0  0  0  0  0  0  0  0  0  0  0  0
    1.8365   -6.3134    1.0493 H   0  0  0  0  0  0  0  0  0  0  0  0
    4.0406   -7.0092    1.7992 H   0  0  0  0  0  0  0  0  0  0  0  0
    5.4011   -7.8223    3.6836 H   0  0  0  0  0  0  0  0  0  0  0  0
    6.1824   -4.4611    7.6109 H   0  0  0  0  0  0  0  0  0  0  0  0
    4.6611   -5.3262    7.9353 H   0  0  0  0  0  0  0  0  0  0  0  0
    5.8377   -6.7875    9.5566 H   0  0  0  0  0  0  0  0  0  0  0  0
    7.3591   -5.9224    9.2322 H   0  0  0  0  0  0  0  0  0  0  0  0
    6.0001   -5.0731   10.0069 H   0  0  0  0  0  0  0  0  0  0  0  0
    8.1696   -6.0232    6.9735 H   0  0  0  0  0  0  0  0  0  0  0  0
    7.7065   -7.3892    5.9305 H   0  0  0  0  0  0  0  0  0  0  0  0
    6.6307   -5.8145    4.3457 H   0  0  0  0  0  0  0  0  0  0  0  0
    7.0938   -4.4485    5.3887 H   0  0  0  0  0  0  0  0  0  0  0  0
    8.3496   -5.4139    4.5767 H   0  0  0  0  0  0  0  0  0  0  0  0
    2.5740   -6.1907    6.4286 H   0  0  0  0  0  0  0  0  0  0  0  0
    1.2155   -5.3743    4.5442 H   0  0  0  0  0  0  0  0  0  0  0  0
  1  2  1  0
  1 26  1  6
  1 27  1  0
  1 28  1  0
  2  3  1  0
  2 29  1  1
  2 30  1  0
  3  4  1  0
  3 31  1  6
  3 32  1  0
  4  5  1  1
  4  6  1  0
  4  7  1  0
  6 33  1  6
  6 34  1  0
  6 35  1  0
  7  8  1  0
  7 36  1  0
  8  9  2  0
  8 10  1  0
 10 11  1  0
 10 37  1  6
 10 38  1  0
 11 12  1  0
 11 39  1  1
 11 40  1  0
 12 25  2  0
 12 13  1  0
 13 14  2  0
 13 41  1  0
 14 15  1  0
 14 42  1  0
 15 16  1  0
 15 24  2  0
 16 17  2  0
 16 18  2  0
 16 19  1  1
 19 20  1  0
 19 22  1  0
 20 21  1  0
 20 43  1  6
 20 44  1  0
 21 45  1  1
 21 46  1  0
 21 47  1  0
 22 23  1  0
 22 48  1  1
 22 49  1  0
 23 50  1  6
 23 51  1  0
 23 52  1  0
 24 25  1  0
 24 53  1  0
 25 54  1  0
M  END
$$$$
