ZINC000013134639
     RDKit          3D

 60 62  0  0  1  0  0  0  0  0999 V2000
    0.0547    1.5894    0.0259 C   0  0  1  0  0  0  0  0  0  0  0  0
    0.0624    0.0594    0.0188 C   0  0  1  0  0  0  0  0  0  0  0  0
    0.7606   -0.4336   -1.2223 C   0  0  0  0  0  0  0  0  0  0  0  0
    0.0363   -0.6565   -2.3790 C   0  0  0  0  0  0  0  0  0  0  0  0
    0.6733   -1.1084   -3.5181 C   0  0  0  0  0  0  0  0  0  0  0  0
    2.0427   -1.3385   -3.5011 C   0  0  0  0  0  0  0  0  0  0  0  0
    2.6911   -1.7959   -4.6536 N   0  0  0  0  0  0  0  0  0  0  0  0
    4.1438   -1.9667   -4.7739 C   0  0  1  0  0  0  0  0  0  0  0  0
    4.4242   -2.0549   -6.2905 C   0  0  1  0  0  0  0  0  0  0  0  0
    4.6575   -1.0728   -6.7018 H   0  0  0  0  0  0  0  0  0  0  0  0
    5.5330   -3.0342   -6.5779 C   0  0  0  0  0  0  0  0  0  0  0  0
    6.0692   -3.6234   -5.6694 O   0  0  0  0  0  0  0  0  0  0  0  0
    5.9250   -3.2518   -7.8431 O   0  0  0  0  0  0  0  0  0  0  0  0
    6.9986   -4.2083   -8.0453 C   0  0  1  0  0  0  0  0  0  0  0  0
    7.3004   -4.3210   -9.5174 C   0  0  0  0  0  0  0  0  0  0  0  0
    6.6726   -3.6601  -10.3175 O   0  0  0  0  0  0  0  0  0  0  0  0
    8.2681   -5.1560   -9.9450 N   0  0  0  0  0  0  0  0  0  0  0  0
    8.6265   -5.1774  -11.2974 C   0  0  0  0  0  0  0  0  0  0  0  0
    9.0030   -6.3712  -11.8987 C   0  0  0  0  0  0  0  0  0  0  0  0
    9.3563   -6.3889  -13.2337 C   0  0  0  0  0  0  0  0  0  0  0  0
    9.3359   -5.2195  -13.9714 C   0  0  0  0  0  0  0  0  0  0  0  0
    9.7879   -5.2463  -15.6743 S   0  0  1  0  0  0  0  0  0  0  0  0
   10.2035   -3.9270  -15.9999 O   0  0  0  0  0  0  0  0  0  0  0  0
   10.6153   -6.3879  -15.8519 O   0  0  0  0  0  0  0  0  0  0  0  0
    8.4072   -5.5296  -16.5435 N   0  0  0  0  0  0  0  0  0  0  0  0
    7.5874   -4.4058  -17.0032 C   0  0  1  0  0  0  0  0  0  0  0  0
    8.0055   -6.9041  -16.8529 C   0  0  1  0  0  0  0  0  0  0  0  0
    8.9611   -4.0292  -13.3758 C   0  0  0  0  0  0  0  0  0  0  0  0
    8.6011   -4.0058  -12.0426 C   0  0  0  0  0  0  0  0  0  0  0  0
    3.0720   -2.5744   -6.8315 C   0  0  1  0  0  0  0  0  0  0  0  0
    2.0631   -2.1407   -5.7909 C   0  0  0  0  0  0  0  0  0  0  0  0
    0.8627   -2.1027   -5.9607 O   0  0  0  0  0  0  0  0  0  0  0  0
    2.7673   -1.1133   -2.3380 C   0  0  0  0  0  0  0  0  0  0  0  0
    2.1252   -0.6568   -1.2036 C   0  0  0  0  0  0  0  0  0  0  0  0
    1.0804    1.9580    0.0154 H   0  0  0  0  0  0  0  0  0  0  0  0
   -0.4715    1.9542   -0.8562 H   0  0  0  0  0  0  0  0  0  0  0  0
   -0.4504    1.9460    0.9236 H   0  0  0  0  0  0  0  0  0  0  0  0
    0.5886   -0.3053    0.9010 H   0  0  0  0  0  0  0  0  0  0  0  0
   -0.9634   -0.3091    0.0293 H   0  0  0  0  0  0  0  0  0  0  0  0
   -1.0286   -0.4773   -2.3915 H   0  0  0  0  0  0  0  0  0  0  0  0
    0.1070   -1.2829   -4.4210 H   0  0  0  0  0  0  0  0  0  0  0  0
    4.6613   -1.1092   -4.3439 H   0  0  0  0  0  0  0  0  0  0  0  0
    4.4579   -2.8853   -4.2782 H   0  0  0  0  0  0  0  0  0  0  0  0
    7.8900   -3.8712   -7.5163 H   0  0  0  0  0  0  0  0  0  0  0  0
    6.6947   -5.1821   -7.6611 H   0  0  0  0  0  0  0  0  0  0  0  0
    8.7160   -5.7422   -9.3152 H   0  0  0  0  0  0  0  0  0  0  0  0
    9.0199   -7.2847  -11.3228 H   0  0  0  0  0  0  0  0  0  0  0  0
    9.6492   -7.3170  -13.7019 H   0  0  0  0  0  0  0  0  0  0  0  0
    7.9257   -4.0890  -17.9898 H   0  0  0  0  0  0  0  0  0  0  0  0
    6.5441   -4.7161  -17.0591 H   0  0  0  0  0  0  0  0  0  0  0  0
    7.6827   -3.5762  -16.3027 H   0  0  0  0  0  0  0  0  0  0  0  0
    8.7325   -7.5986  -16.4320 H   0  0  0  0  0  0  0  0  0  0  0  0
    7.0235   -7.1012  -16.4228 H   0  0  0  0  0  0  0  0  0  0  0  0
    7.9615   -7.0351  -17.9341 H   0  0  0  0  0  0  0  0  0  0  0  0
    8.9461   -3.1176  -13.9546 H   0  0  0  0  0  0  0  0  0  0  0  0
    8.3085   -3.0758  -11.5779 H   0  0  0  0  0  0  0  0  0  0  0  0
    2.8477   -2.1207   -7.7968 H   0  0  0  0  0  0  0  0  0  0  0  0
    3.0863   -3.6612   -6.9138 H   0  0  0  0  0  0  0  0  0  0  0  0
    3.8324   -1.2914   -2.3216 H   0  0  0  0  0  0  0  0  0  0  0  0
    2.6881   -0.4815   -0.2988 H   0  0  0  0  0  0  0  0  0  0  0  0
  1  2  1  0
  1 35  1  6
  1 36  1  0
  1 37  1  0
  2  3  1  0
  2 38  1  1
  2 39  1  0
  3 34  2  0
  3  4  1  0
  4  5  2  0
  4 40  1  0
  5  6  1  0
  5 41  1  0
  6  7  1  0
  6 33  2  0
  7 31  1  0
  7  8  1  0
  8  9  1  0
  8 42  1  1
  8 43  1  0
  9 10  1  6
  9 11  1  0
  9 30  1  0
 11 12  2  0
 11 13  1  0
 13 14  1  0
 14 15  1  0
 14 44  1  1
 14 45  1  0
 15 16  2  0
 15 17  1  0
 17 18  1  0
 17 46  1  0
 18 29  2  0
 18 19  1  0
 19 20  2  0
 19 47  1  0
 20 21  1  0
 20 48  1  0
 21 22  1  0
 21 28  2  0
 22 23  2  0
 22 24  2  0
 22 25  1  6
 25 26  1  0
 25 27  1  0
 26 49  1  6
 26 50  1  0
 26 51  1  0
 27 52  1  1
 27 53  1  0
 27 54  1  0
 28 29  1  0
 28 55  1  0
 29 56  1  0
 30 31  1  0
 30 57  1  6
 30 58  1  0
 31 32  2  0
 33 34  1  0
 33 59  1  0
 34 60  1  0
M  END
$$$$
