ZINC000012982509
     RDKit          3D

 37 39  0  0  1  0  0  0  0  0999 V2000
    0.0872    1.5050   -0.0936 C   0  0  1  0  0  0  0  0  0  0  0  0
    0.0602   -0.0240   -0.0447 C   0  0  2  0  0  0  0  0  0  0  0  0
    0.5123   -0.4302   -0.9495 H   0  0  0  0  0  0  0  0  0  0  0  0
   -1.3791   -0.5114    0.0769 C   0  0  0  0  0  0  0  0  0  0  0  0
   -1.7616   -1.4246    0.9895 C   0  0  0  0  0  0  0  0  0  0  0  0
   -0.8476   -2.0748    2.0063 C   0  0  1  0  0  0  0  0  0  0  0  0
    0.6068   -1.8926    1.5609 C   0  0  1  0  0  0  0  0  0  0  0  0
    0.7967   -0.4974    1.1357 N   0  0  0  0  0  0  0  0  0  0  0  0
    1.8119    0.5135    1.9664 S   0  0  1  0  0  0  0  0  0  0  0  0
    1.2585    1.8176    1.8555 O   0  0  0  0  0  0  0  0  0  0  0  0
    2.0736   -0.1163    3.2130 O   0  0  0  0  0  0  0  0  0  0  0  0
    3.3428    0.5468    1.0947 C   0  0  0  0  0  0  0  0  0  0  0  0
    4.3316   -0.3700    1.3991 C   0  0  0  0  0  0  0  0  0  0  0  0
    5.5326   -0.3438    0.7152 C   0  0  0  0  0  0  0  0  0  0  0  0
    5.7447    0.5989   -0.2734 C   0  0  0  0  0  0  0  0  0  0  0  0
    7.0543    0.6277   -1.0186 C   0  0  1  0  0  0  0  0  0  0  0  0
    6.9667   -0.1943   -2.1472 F   0  0  0  0  0  0  0  0  0  0  0  0
    7.3351    1.9389   -1.4173 F   0  0  0  0  0  0  0  0  0  0  0  0
    8.0766    0.1652   -0.1830 F   0  0  0  0  0  0  0  0  0  0  0  0
    4.7554    1.5148   -0.5787 C   0  0  0  0  0  0  0  0  0  0  0  0
    3.5529    1.4862    0.1025 C   0  0  0  0  0  0  0  0  0  0  0  0
   -3.4828   -1.7478    0.8254 S   0  0  0  0  0  0  0  0  0  0  0  0
   -3.6075   -0.5983   -0.4977 C   0  0  0  0  0  0  0  0  0  0  0  0
   -2.4148   -0.0622   -0.7363 C   0  0  0  0  0  0  0  0  0  0  0  0
    1.1209    1.8494   -0.1234 H   0  0  0  0  0  0  0  0  0  0  0  0
   -0.4363    1.8493   -0.9855 H   0  0  0  0  0  0  0  0  0  0  0  0
   -0.4039    1.9056    0.7932 H   0  0  0  0  0  0  0  0  0  0  0  0
   -0.9923   -1.6055    2.9794 H   0  0  0  0  0  0  0  0  0  0  0  0
   -1.0771   -3.1381    2.0754 H   0  0  0  0  0  0  0  0  0  0  0  0
    1.2750   -2.1158    2.3927 H   0  0  0  0  0  0  0  0  0  0  0  0
    0.8206   -2.5608    0.7268 H   0  0  0  0  0  0  0  0  0  0  0  0
    4.1659   -1.1065    2.1714 H   0  0  0  0  0  0  0  0  0  0  0  0
    6.3054   -1.0596    0.9535 H   0  0  0  0  0  0  0  0  0  0  0  0
    4.9210    2.2511   -1.3513 H   0  0  0  0  0  0  0  0  0  0  0  0
    2.7800    2.2018   -0.1360 H   0  0  0  0  0  0  0  0  0  0  0  0
   -4.5144   -0.3635   -1.0352 H   0  0  0  0  0  0  0  0  0  0  0  0
   -2.2598    0.6744   -1.5107 H   0  0  0  0  0  0  0  0  0  0  0  0
  1  2  1  0
  1 25  1  6
  1 26  1  0
  1 27  1  0
  2  3  1  6
  2  8  1  0
  2  4  1  0
  4 24  1  0
  4  5  2  0
  5  6  1  0
  5 22  1  0
  6  7  1  0
  6 28  1  1
  6 29  1  0
  7  8  1  0
  7 30  1  1
  7 31  1  0
  9  8  1  6
  9 10  2  0
  9 11  2  0
  9 12  1  0
 12 21  2  0
 12 13  1  0
 13 14  2  0
 13 32  1  0
 14 15  1  0
 14 33  1  0
 15 16  1  0
 15 20  2  0
 16 17  1  6
 16 18  1  0
 16 19  1  0
 20 21  1  0
 20 34  1  0
 21 35  1  0
 22 23  1  0
 23 24  2  0
 23 36  1  0
 24 37  1  0
M  END
$$$$
