ZINC000028208279
     RDKit          3D

 59 60  0  0  1  0  0  0  0  0999 V2000
   -0.0187    1.5258    0.0104 C   0  0  1  0  0  0  0  0  0  0  0  0
    0.0021   -0.0041    0.0020 C   0  0  1  0  0  0  0  0  0  0  0  0
    0.6878   -0.4765   -1.2033 N   0  0  0  0  0  0  0  0  0  0  0  0
    2.1478   -0.5966   -1.2159 C   0  0  1  0  0  0  0  0  0  0  0  0
    2.5532   -1.9514   -0.6319 C   0  0  1  0  0  0  0  0  0  0  0  0
   -0.1875   -0.8749   -2.5515 S   0  0  1  0  0  0  0  0  0  0  0  0
    0.6166   -1.7761   -3.3001 O   0  0  0  0  0  0  0  0  0  0  0  0
   -1.4970   -1.1925   -2.1004 O   0  0  0  0  0  0  0  0  0  0  0  0
   -0.3375    0.5853   -3.5262 C   0  0  0  0  0  0  0  0  0  0  0  0
   -1.4061    1.4397   -3.3289 C   0  0  0  0  0  0  0  0  0  0  0  0
   -1.5264    2.5859   -4.0915 C   0  0  0  0  0  0  0  0  0  0  0  0
   -0.5738    2.8793   -5.0556 C   0  0  0  0  0  0  0  0  0  0  0  0
   -0.6898    4.0063   -5.8064 O   0  0  0  0  0  0  0  0  0  0  0  0
   -1.8185    4.8441   -5.5491 C   0  0  1  0  0  0  0  0  0  0  0  0
   -1.7795    6.0364   -6.4699 C   0  0  0  0  0  0  0  0  0  0  0  0
   -0.8743    6.1569   -7.2680 O   0  0  0  0  0  0  0  0  0  0  0  0
   -2.7506    6.9688   -6.4066 N   0  0  0  0  0  0  0  0  0  0  0  0
   -2.7127    8.1279   -7.3017 C   0  0  1  0  0  0  0  0  0  0  0  0
   -1.6773    8.4262   -7.4662 H   0  0  0  0  0  0  0  0  0  0  0  0
   -3.3562    7.7599   -8.6402 C   0  0  1  0  0  0  0  0  0  0  0  0
   -3.4830    9.2877   -6.6673 C   0  0  1  0  0  0  0  0  0  0  0  0
   -2.7678    9.7377   -5.3918 C   0  0  1  0  0  0  0  0  0  0  0  0
   -3.5265   10.8801   -4.7669 C   0  0  0  0  0  0  0  0  0  0  0  0
   -3.2308   12.1828   -5.1225 C   0  0  0  0  0  0  0  0  0  0  0  0
   -3.9267   13.2306   -4.5493 C   0  0  0  0  0  0  0  0  0  0  0  0
   -4.9187   12.9758   -3.6209 C   0  0  0  0  0  0  0  0  0  0  0  0
   -5.2150   11.6730   -3.2660 C   0  0  0  0  0  0  0  0  0  0  0  0
   -4.5220   10.6250   -3.8424 C   0  0  0  0  0  0  0  0  0  0  0  0
    0.4989    2.0198   -5.2522 C   0  0  0  0  0  0  0  0  0  0  0  0
    1.6938    2.3831   -6.4580 Cl  0  0  0  0  0  0  0  0  0  0  0  0
    0.6171    0.8775   -4.4832 C   0  0  0  0  0  0  0  0  0  0  0  0
    1.0039    1.9031    0.0027 H   0  0  0  0  0  0  0  0  0  0  0  0
   -0.5459    1.8868   -0.8726 H   0  0  0  0  0  0  0  0  0  0  0  0
   -0.5289    1.8773    0.9072 H   0  0  0  0  0  0  0  0  0  0  0  0
    0.5293   -0.3651    0.8851 H   0  0  0  0  0  0  0  0  0  0  0  0
   -1.0205   -0.3814    0.0098 H   0  0  0  0  0  0  0  0  0  0  0  0
    2.5098   -0.5199   -2.2412 H   0  0  0  0  0  0  0  0  0  0  0  0
    2.5833    0.2026   -0.6162 H   0  0  0  0  0  0  0  0  0  0  0  0
    2.1912   -2.0280    0.3934 H   0  0  0  0  0  0  0  0  0  0  0  0
    2.1177   -2.7506   -1.2316 H   0  0  0  0  0  0  0  0  0  0  0  0
    3.6395   -2.0407   -0.6413 H   0  0  0  0  0  0  0  0  0  0  0  0
   -2.1482    1.2110   -2.5782 H   0  0  0  0  0  0  0  0  0  0  0  0
   -2.3618    3.2526   -3.9368 H   0  0  0  0  0  0  0  0  0  0  0  0
   -2.7357    4.2812   -5.7222 H   0  0  0  0  0  0  0  0  0  0  0  0
   -1.7905    5.1836   -4.5137 H   0  0  0  0  0  0  0  0  0  0  0  0
   -3.4746    6.8724   -5.7683 H   0  0  0  0  0  0  0  0  0  0  0  0
   -4.3916    7.4615   -8.4757 H   0  0  0  0  0  0  0  0  0  0  0  0
   -3.3279    8.6223   -9.3062 H   0  0  0  0  0  0  0  0  0  0  0  0
   -2.8074    6.9336   -9.0921 H   0  0  0  0  0  0  0  0  0  0  0  0
   -3.5307   10.1196   -7.3699 H   0  0  0  0  0  0  0  0  0  0  0  0
   -4.4935    8.9613   -6.4214 H   0  0  0  0  0  0  0  0  0  0  0  0
   -2.7200    8.9058   -4.6892 H   0  0  0  0  0  0  0  0  0  0  0  0
   -1.7573   10.0641   -5.6377 H   0  0  0  0  0  0  0  0  0  0  0  0
   -2.4558   12.3819   -5.8478 H   0  0  0  0  0  0  0  0  0  0  0  0
   -3.6952   14.2484   -4.8266 H   0  0  0  0  0  0  0  0  0  0  0  0
   -5.4619   13.7945   -3.1725 H   0  0  0  0  0  0  0  0  0  0  0  0
   -5.9898   11.4739   -2.5404 H   0  0  0  0  0  0  0  0  0  0  0  0
   -4.7535    9.6071   -3.5651 H   0  0  0  0  0  0  0  0  0  0  0  0
    1.4512    0.2085   -4.6351 H   0  0  0  0  0  0  0  0  0  0  0  0
  1  2  1  0
  1 32  1  6
  1 33  1  0
  1 34  1  0
  2  3  1  0
  2 35  1  1
  2 36  1  0
  3  4  1  0
  6  3  1  1
  4  5  1  0
  4 37  1  6
  4 38  1  0
  5 39  1  1
  5 40  1  0
  5 41  1  0
  6  7  2  0
  6  8  2  0
  6  9  1  0
  9 31  2  0
  9 10  1  0
 10 11  2  0
 10 42  1  0
 11 12  1  0
 11 43  1  0
 12 13  1  0
 12 29  2  0
 13 14  1  0
 14 15  1  0
 14 44  1  1
 14 45  1  0
 15 16  2  0
 15 17  1  0
 17 18  1  0
 17 46  1  0
 18 19  1  6
 18 20  1  0
 18 21  1  0
 20 47  1  1
 20 48  1  0
 20 49  1  0
 21 22  1  0
 21 50  1  6
 21 51  1  0
 22 23  1  0
 22 52  1  1
 22 53  1  0
 23 28  2  0
 23 24  1  0
 24 25  2  0
 24 54  1  0
 25 26  1  0
 25 55  1  0
 26 27  2  0
 26 56  1  0
 27 28  1  0
 27 57  1  0
 28 58  1  0
 29 30  1  0
 29 31  1  0
 31 59  1  0
M  END
$$$$
