ZINC000155264192
     RDKit          3D

 49 51  0  0  1  0  0  0  0  0999 V2000
    0.0021   -0.0041    0.0020 O   0  0  0  0  0  0  0  0  0  0  0  0
   -0.0172    1.4168    0.0098 S   0  0  1  0  0  0  0  0  0  0  0  0
    1.1617    2.2101    0.0028 O   0  0  0  0  0  0  0  0  0  0  0  0
   -0.9002    1.8797   -1.3124 N   0  0  0  0  0  0  0  0  0  0  0  0
   -1.9187    1.0611   -1.9949 C   0  0  1  0  0  0  0  0  0  0  0  0
   -1.9815    1.6264   -3.4358 C   0  0  2  0  0  0  0  0  0  0  0  0
   -2.9510    1.4263   -3.8921 H   0  0  0  0  0  0  0  0  0  0  0  0
   -0.9224    1.1012   -4.2387 O   0  0  0  0  0  0  0  0  0  0  0  0
   -1.7885    3.1451   -3.1833 C   0  0  1  0  0  0  0  0  0  0  0  0
   -0.8028    3.1776   -1.9962 C   0  0  1  0  0  0  0  0  0  0  0  0
    0.2136    3.3229   -2.3621 H   0  0  0  0  0  0  0  0  0  0  0  0
   -1.1724    4.2939   -1.0536 C   0  0  0  0  0  0  0  0  0  0  0  0
   -2.2153    4.1284   -0.1615 C   0  0  0  0  0  0  0  0  0  0  0  0
   -2.5543    5.1523    0.7031 C   0  0  0  0  0  0  0  0  0  0  0  0
   -1.8502    6.3416    0.6758 C   0  0  0  0  0  0  0  0  0  0  0  0
   -2.2202    7.4581    1.6180 C   0  0  1  0  0  0  0  0  0  0  0  0
   -1.4932    7.3259    2.8060 F   0  0  0  0  0  0  0  0  0  0  0  0
   -1.9217    8.6886    1.0230 F   0  0  0  0  0  0  0  0  0  0  0  0
   -3.5891    7.3962    1.8997 F   0  0  0  0  0  0  0  0  0  0  0  0
   -0.8065    6.5066   -0.2154 C   0  0  0  0  0  0  0  0  0  0  0  0
   -0.4650    5.4813   -1.0773 C   0  0  0  0  0  0  0  0  0  0  0  0
   -0.8748    1.8654    1.3536 N   0  0  0  0  0  0  0  0  0  0  0  0
   -0.6492    3.1794    1.9129 C   0  0  1  0  0  0  0  0  0  0  0  0
    0.4959    3.1116    2.9533 C   0  0  1  0  0  0  0  0  0  0  0  0
    0.0469    2.4036    4.1619 C   0  0  1  0  0  0  0  0  0  0  0  0
   -0.3390    0.9459    3.9295 C   0  0  1  0  0  0  0  0  0  0  0  0
   -1.7740    0.8758    3.4686 C   0  0  1  0  0  0  0  0  0  0  0  0
   -1.8422    0.9096    1.9273 C   0  0  1  0  0  0  0  0  0  0  0  0
   -1.6156    0.0142   -2.0110 H   0  0  0  0  0  0  0  0  0  0  0  0
   -2.8851    1.1696   -1.5024 H   0  0  0  0  0  0  0  0  0  0  0  0
   -0.9471    0.1401   -4.3425 H   0  0  0  0  0  0  0  0  0  0  0  0
   -1.3571    3.6299   -4.0591 H   0  0  0  0  0  0  0  0  0  0  0  0
   -2.7335    3.6134   -2.9082 H   0  0  0  0  0  0  0  0  0  0  0  0
   -2.7654    3.1992   -0.1401 H   0  0  0  0  0  0  0  0  0  0  0  0
   -3.3696    5.0233    1.3996 H   0  0  0  0  0  0  0  0  0  0  0  0
   -0.2562    7.4357   -0.2365 H   0  0  0  0  0  0  0  0  0  0  0  0
    0.3505    5.6102   -1.7736 H   0  0  0  0  0  0  0  0  0  0  0  0
   -0.3752    3.8709    1.1161 H   0  0  0  0  0  0  0  0  0  0  0  0
   -1.5605    3.5285    2.3985 H   0  0  0  0  0  0  0  0  0  0  0  0
    1.3457    2.5835    2.5206 H   0  0  0  0  0  0  0  0  0  0  0  0
    0.8012    4.1233    3.2203 H   0  0  0  0  0  0  0  0  0  0  0  0
    0.8484    2.4360    4.8999 H   0  0  0  0  0  0  0  0  0  0  0  0
   -0.8163    2.9292    4.5703 H   0  0  0  0  0  0  0  0  0  0  0  0
    0.3094    0.5153    3.1665 H   0  0  0  0  0  0  0  0  0  0  0  0
   -0.2278    0.3877    4.8590 H   0  0  0  0  0  0  0  0  0  0  0  0
   -2.2250   -0.0483    3.8302 H   0  0  0  0  0  0  0  0  0  0  0  0
   -2.3248    1.7260    3.8708 H   0  0  0  0  0  0  0  0  0  0  0  0
   -2.8503    1.1918    1.6237 H   0  0  0  0  0  0  0  0  0  0  0  0
   -1.6239   -0.0862    1.5414 H   0  0  0  0  0  0  0  0  0  0  0  0
  1  2  2  0
  2  3  2  0
  2  4  1  6
  2 22  1  0
  4 10  1  0
  4  5  1  0
  5  6  1  0
  5 29  1  6
  5 30  1  0
  6  7  1  6
  6  8  1  0
  6  9  1  0
  8 31  1  0
  9 10  1  0
  9 32  1  6
  9 33  1  0
 10 11  1  6
 10 12  1  0
 12 21  2  0
 12 13  1  0
 13 14  2  0
 13 34  1  0
 14 15  1  0
 14 35  1  0
 15 16  1  0
 15 20  2  0
 16 17  1  1
 16 18  1  0
 16 19  1  0
 20 21  1  0
 20 36  1  0
 21 37  1  0
 22 28  1  0
 22 23  1  0
 23 24  1  0
 23 38  1  6
 23 39  1  0
 24 25  1  0
 24 40  1  6
 24 41  1  0
 25 26  1  0
 25 42  1  1
 25 43  1  0
 26 27  1  0
 26 44  1  6
 26 45  1  0
 27 28  1  0
 27 46  1  1
 27 47  1  0
 28 48  1  1
 28 49  1  0
M  END
$$$$
