ZINC000026753611
     RDKit          3D

 52 53  0  0  1  0  0  0  0  0999 V2000
   -0.7920    0.7722    0.2857 C   0  0  1  0  0  0  0  0  0  0  0  0
   -0.2836   -0.6205   -0.0921 C   0  0  1  0  0  0  0  0  0  0  0  0
   -1.4734   -1.5313   -0.4013 C   0  0  1  0  0  0  0  0  0  0  0  0
    0.6145   -0.5180   -1.3266 C   0  0  1  0  0  0  0  0  0  0  0  0
    1.4606    0.1332   -1.1072 H   0  0  0  0  0  0  0  0  0  0  0  0
    1.1046   -1.8510   -1.6860 N   0  0  0  0  0  0  0  0  0  0  0  0
    2.2043   -2.3489   -1.0867 C   0  0  0  0  0  0  0  0  0  0  0  0
    2.6551   -3.5752   -1.4173 N   0  0  0  0  0  0  0  0  0  0  0  0
    2.7897   -1.6917   -0.2478 O   0  0  0  0  0  0  0  0  0  0  0  0
   -0.1747    0.0538   -2.4760 C   0  0  0  0  0  0  0  0  0  0  0  0
   -0.8111   -0.6821   -3.2001 O   0  0  0  0  0  0  0  0  0  0  0  0
   -0.1734    1.3830   -2.6992 N   0  0  0  0  0  0  0  0  0  0  0  0
    0.5099    2.2964   -1.7725 C   0  0  1  0  0  0  0  0  0  0  0  0
    1.5163    3.1379   -2.5669 C   0  0  1  0  0  0  0  0  0  0  0  0
    0.8350    3.6998   -3.7416 N   0  0  0  0  0  0  0  0  0  0  0  0
    0.8375    5.3328   -4.0165 S   0  0  1  0  0  0  0  0  0  0  0  0
   -0.2945    5.6043   -4.8313 O   0  0  0  0  0  0  0  0  0  0  0  0
    1.0540    5.9516   -2.7557 O   0  0  0  0  0  0  0  0  0  0  0  0
    2.2554    5.6942   -4.9981 C   0  0  0  0  0  0  0  0  0  0  0  0
    3.4589    5.9968   -4.3891 C   0  0  0  0  0  0  0  0  0  0  0  0
    4.5713    6.2804   -5.1592 C   0  0  0  0  0  0  0  0  0  0  0  0
    4.4803    6.2609   -6.5384 C   0  0  0  0  0  0  0  0  0  0  0  0
    5.6928    6.5705   -7.3780 C   0  0  1  0  0  0  0  0  0  0  0  0
    6.3922    5.3878   -7.6412 F   0  0  0  0  0  0  0  0  0  0  0  0
    5.2885    7.1516   -8.5847 F   0  0  0  0  0  0  0  0  0  0  0  0
    6.5234    7.4597   -6.6875 F   0  0  0  0  0  0  0  0  0  0  0  0
    3.2771    5.9570   -7.1475 C   0  0  0  0  0  0  0  0  0  0  0  0
    2.1657    5.6697   -6.3774 C   0  0  0  0  0  0  0  0  0  0  0  0
    0.1517    2.7864   -4.6683 C   0  0  1  0  0  0  0  0  0  0  0  0
   -0.8500    1.9443   -3.8769 C   0  0  1  0  0  0  0  0  0  0  0  0
    0.0496    1.3982    0.5824 H   0  0  0  0  0  0  0  0  0  0  0  0
   -1.2939    1.2208   -0.5717 H   0  0  0  0  0  0  0  0  0  0  0  0
   -1.4940    0.6900    1.1154 H   0  0  0  0  0  0  0  0  0  0  0  0
    0.2865   -1.0368    0.7384 H   0  0  0  0  0  0  0  0  0  0  0  0
   -2.0435   -1.1149   -1.2319 H   0  0  0  0  0  0  0  0  0  0  0  0
   -1.1112   -2.5235   -0.6705 H   0  0  0  0  0  0  0  0  0  0  0  0
   -2.1133   -1.6043    0.4781 H   0  0  0  0  0  0  0  0  0  0  0  0
    0.6375   -2.3753   -2.3552 H   0  0  0  0  0  0  0  0  0  0  0  0
    2.1881   -4.0995   -2.0866 H   0  0  0  0  0  0  0  0  0  0  0  0
    3.4466   -3.9336   -0.9860 H   0  0  0  0  0  0  0  0  0  0  0  0
   -0.2213    2.9513   -1.2988 H   0  0  0  0  0  0  0  0  0  0  0  0
    1.0354    1.7196   -1.0114 H   0  0  0  0  0  0  0  0  0  0  0  0
    1.8921    3.9468   -1.9403 H   0  0  0  0  0  0  0  0  0  0  0  0
    2.3447    2.5080   -2.8911 H   0  0  0  0  0  0  0  0  0  0  0  0
    3.5300    6.0120   -3.3115 H   0  0  0  0  0  0  0  0  0  0  0  0
    5.5114    6.5174   -4.6833 H   0  0  0  0  0  0  0  0  0  0  0  0
    3.2061    5.9415   -8.2250 H   0  0  0  0  0  0  0  0  0  0  0  0
    1.2257    5.4323   -6.8532 H   0  0  0  0  0  0  0  0  0  0  0  0
   -0.3738    3.3631   -5.4294 H   0  0  0  0  0  0  0  0  0  0  0  0
    0.8829    2.1314   -5.1420 H   0  0  0  0  0  0  0  0  0  0  0  0
   -1.2249    1.1359   -4.5046 H   0  0  0  0  0  0  0  0  0  0  0  0
   -1.6791    2.5724   -3.5511 H   0  0  0  0  0  0  0  0  0  0  0  0
  1  2  1  0
  1 31  1  1
  1 32  1  0
  1 33  1  0
  2  3  1  0
  2  4  1  0
  2 34  1  1
  3 35  1  6
  3 36  1  0
  3 37  1  0
  4  5  1  1
  4  6  1  0
  4 10  1  0
  6  7  1  0
  6 38  1  0
  7  8  1  0
  7  9  2  0
  8 39  1  0
  8 40  1  0
 10 11  2  0
 10 12  1  0
 12 30  1  0
 12 13  1  0
 13 14  1  0
 13 41  1  1
 13 42  1  0
 14 15  1  0
 14 43  1  1
 14 44  1  0
 16 15  1  1
 15 29  1  0
 16 17  2  0
 16 18  2  0
 16 19  1  0
 19 28  2  0
 19 20  1  0
 20 21  2  0
 20 45  1  0
 21 22  1  0
 21 46  1  0
 22 23  1  0
 22 27  2  0
 23 24  1  6
 23 25  1  0
 23 26  1  0
 27 28  1  0
 27 47  1  0
 28 48  1  0
 29 30  1  0
 29 49  1  6
 29 50  1  0
 30 51  1  6
 30 52  1  0
M  END
$$$$
