ZINC000012917005
     RDKit          3D

 63 66  0  0  1  0  0  0  0  0999 V2000
   -0.1121   -0.1731   -0.0685 O   0  0  0  0  0  0  0  0  0  0  0  0
   -0.1473    1.2463   -0.1254 S   0  0  1  0  0  0  0  0  0  0  0  0
    1.0219    2.0503   -0.2006 O   0  0  0  0  0  0  0  0  0  0  0  0
   -1.1292    1.6637   -1.5277 C   0  0  0  0  0  0  0  0  0  0  0  0
   -2.0615    0.7647   -2.0110 C   0  0  0  0  0  0  0  0  0  0  0  0
   -2.8318    1.0922   -3.1111 C   0  0  0  0  0  0  0  0  0  0  0  0
   -2.6702    2.3189   -3.7276 C   0  0  0  0  0  0  0  0  0  0  0  0
   -3.5096    2.6757   -4.9272 C   0  0  1  0  0  0  0  0  0  0  0  0
   -4.6844    3.3062   -4.5034 F   0  0  0  0  0  0  0  0  0  0  0  0
   -2.7903    3.5404   -5.7592 F   0  0  0  0  0  0  0  0  0  0  0  0
   -3.8334    1.5118   -5.6327 F   0  0  0  0  0  0  0  0  0  0  0  0
   -1.7389    3.2184   -3.2434 C   0  0  0  0  0  0  0  0  0  0  0  0
   -0.9712    2.8924   -2.1410 C   0  0  0  0  0  0  0  0  0  0  0  0
   -0.9742    1.7478    1.2188 N   0  0  0  0  0  0  0  0  0  0  0  0
   -0.7830    3.1015    1.7613 C   0  0  1  0  0  0  0  0  0  0  0  0
   -2.1585    3.7518    1.9433 C   0  0  1  0  0  0  0  0  0  0  0  0
   -3.0092    2.8716    2.7555 N   0  0  0  0  0  0  0  0  0  0  0  0
   -4.2757    3.5325    3.0976 C   0  0  1  0  0  0  0  0  0  0  0  0
   -5.0222    2.6966    4.1391 C   0  0  1  0  0  0  0  0  0  0  0  0
   -5.1492    1.6803    3.7661 H   0  0  0  0  0  0  0  0  0  0  0  0
   -4.2706    2.6676    5.3542 O   0  0  0  0  0  0  0  0  0  0  0  0
   -6.3950    3.3182    4.4033 C   0  0  1  0  0  0  0  0  0  0  0  0
   -7.1374    2.4756    5.2869 O   0  0  0  0  0  0  0  0  0  0  0  0
   -8.4003    3.0157    5.6810 C   0  0  2  0  0  0  0  0  0  0  0  0
   -8.8037    3.6173    4.8664 H   0  0  0  0  0  0  0  0  0  0  0  0
   -8.2083    3.8990    6.9121 C   0  0  1  0  0  0  0  0  0  0  0  0
   -9.5906    4.2913    7.4469 C   0  0  1  0  0  0  0  0  0  0  0  0
  -10.2476    3.0479    8.0426 C   0  0  1  0  0  0  0  0  0  0  0  0
  -10.2056    1.9055    7.0617 C   0  0  0  0  0  0  0  0  0  0  0  0
  -11.0701    0.8395    7.2732 C   0  0  0  0  0  0  0  0  0  0  0  0
  -11.0759   -0.2396    6.4134 C   0  0  0  0  0  0  0  0  0  0  0  0
  -10.2141   -0.2611    5.3330 C   0  0  0  0  0  0  0  0  0  0  0  0
   -9.3561    0.7982    5.1198 C   0  0  0  0  0  0  0  0  0  0  0  0
   -9.3510    1.8869    5.9827 C   0  0  0  0  0  0  0  0  0  0  0  0
   -3.2501    1.5904    2.0784 C   0  0  1  0  0  0  0  0  0  0  0  0
   -1.9238    0.8536    1.8983 C   0  0  1  0  0  0  0  0  0  0  0  0
   -2.1877   -0.1936   -1.5294 H   0  0  0  0  0  0  0  0  0  0  0  0
   -3.5596    0.3896   -3.4892 H   0  0  0  0  0  0  0  0  0  0  0  0
   -1.6129    4.1769   -3.7249 H   0  0  0  0  0  0  0  0  0  0  0  0
   -0.2436    3.5952   -1.7627 H   0  0  0  0  0  0  0  0  0  0  0  0
   -0.2759    3.0417    2.7244 H   0  0  0  0  0  0  0  0  0  0  0  0
   -0.1871    3.6935    1.0667 H   0  0  0  0  0  0  0  0  0  0  0  0
   -2.0433    4.7118    2.4466 H   0  0  0  0  0  0  0  0  0  0  0  0
   -2.6203    3.9051    0.9679 H   0  0  0  0  0  0  0  0  0  0  0  0
   -4.0704    4.5223    3.5054 H   0  0  0  0  0  0  0  0  0  0  0  0
   -4.8889    3.6288    2.2016 H   0  0  0  0  0  0  0  0  0  0  0  0
   -4.1188    3.5395    5.7437 H   0  0  0  0  0  0  0  0  0  0  0  0
   -6.2676    4.3001    4.8591 H   0  0  0  0  0  0  0  0  0  0  0  0
   -6.9342    3.4219    3.4617 H   0  0  0  0  0  0  0  0  0  0  0  0
   -7.6615    3.3481    7.6774 H   0  0  0  0  0  0  0  0  0  0  0  0
   -7.6529    4.7957    6.6374 H   0  0  0  0  0  0  0  0  0  0  0  0
   -9.4829    5.0546    8.2176 H   0  0  0  0  0  0  0  0  0  0  0  0
  -10.2039    4.6758    6.6319 H   0  0  0  0  0  0  0  0  0  0  0  0
   -9.7174    2.7614    8.9509 H   0  0  0  0  0  0  0  0  0  0  0  0
  -11.2854    3.2726    8.2886 H   0  0  0  0  0  0  0  0  0  0  0  0
  -11.7430    0.8552    8.1177 H   0  0  0  0  0  0  0  0  0  0  0  0
  -11.7513   -1.0649    6.5843 H   0  0  0  0  0  0  0  0  0  0  0  0
  -10.2121   -1.1043    4.6582 H   0  0  0  0  0  0  0  0  0  0  0  0
   -8.6826    0.7804    4.2757 H   0  0  0  0  0  0  0  0  0  0  0  0
   -3.9265    0.9828    2.6796 H   0  0  0  0  0  0  0  0  0  0  0  0
   -3.6966    1.7738    1.1011 H   0  0  0  0  0  0  0  0  0  0  0  0
   -2.0810   -0.0416    1.2966 H   0  0  0  0  0  0  0  0  0  0  0  0
   -1.5233    0.5769    2.8736 H   0  0  0  0  0  0  0  0  0  0  0  0
  1  2  2  0
  2  3  2  0
  2  4  1  0
  2 14  1  1
  4 13  2  0
  4  5  1  0
  5  6  2  0
  5 37  1  0
  6  7  1  0
  6 38  1  0
  7  8  1  0
  7 12  2  0
  8  9  1  1
  8 10  1  0
  8 11  1  0
 12 13  1  0
 12 39  1  0
 13 40  1  0
 14 36  1  0
 14 15  1  0
 15 16  1  0
 15 41  1  1
 15 42  1  0
 16 17  1  0
 16 43  1  1
 16 44  1  0
 17 18  1  0
 17 35  1  0
 18 19  1  0
 18 45  1  1
 18 46  1  0
 19 20  1  6
 19 21  1  0
 19 22  1  0
 21 47  1  0
 22 23  1  0
 22 48  1  1
 22 49  1  0
 23 24  1  0
 24 25  1  6
 24 34  1  0
 24 26  1  0
 26 27  1  0
 26 50  1  1
 26 51  1  0
 27 28  1  0
 27 52  1  1
 27 53  1  0
 28 29  1  0
 28 54  1  1
 28 55  1  0
 29 34  2  0
 29 30  1  0
 30 31  2  0
 30 56  1  0
 31 32  1  0
 31 57  1  0
 32 33  2  0
 32 58  1  0
 33 34  1  0
 33 59  1  0
 35 36  1  0
 35 60  1  1
 35 61  1  0
 36 62  1  6
 36 63  1  0
M  END
$$$$
