ZINC000006944775
     RDKit          3D

 52 53  0  0  1  0  0  0  0  0999 V2000
   -0.0187    1.5258    0.0104 C   0  0  1  0  0  0  0  0  0  0  0  0
    0.0021   -0.0041    0.0020 C   0  0  1  0  0  0  0  0  0  0  0  0
    0.7421   -0.5109    1.2415 C   0  0  1  0  0  0  0  0  0  0  0  0
    0.7628   -2.0407    1.2331 C   0  0  1  0  0  0  0  0  0  0  0  0
    1.1931   -2.3931    0.2957 H   0  0  0  0  0  0  0  0  0  0  0  0
    1.6083   -2.5458    2.4040 C   0  0  1  0  0  0  0  0  0  0  0  0
   -0.6052   -2.5484    1.3639 N   0  0  0  0  0  0  0  0  0  0  0  0
   -0.9177   -3.7721    0.8935 C   0  0  0  0  0  0  0  0  0  0  0  0
   -0.0664   -4.4531    0.3620 O   0  0  0  0  0  0  0  0  0  0  0  0
   -2.3249   -4.2944    1.0279 C   0  0  1  0  0  0  0  0  0  0  0  0
   -2.4060   -5.6354    0.4437 N   0  0  0  0  0  0  0  0  0  0  0  0
   -2.0445   -6.8069    1.2457 C   0  0  1  0  0  0  0  0  0  0  0  0
   -3.2351   -7.2461    2.0584 C   0  0  0  0  0  0  0  0  0  0  0  0
   -3.4393   -6.7251    3.3225 C   0  0  0  0  0  0  0  0  0  0  0  0
   -4.5314   -7.1281    4.0680 C   0  0  0  0  0  0  0  0  0  0  0  0
   -5.4196   -8.0516    3.5493 C   0  0  0  0  0  0  0  0  0  0  0  0
   -5.2160   -8.5719    2.2849 C   0  0  0  0  0  0  0  0  0  0  0  0
   -4.1262   -8.1657    1.5377 C   0  0  0  0  0  0  0  0  0  0  0  0
   -2.9064   -5.8270   -1.1232 S   0  0  1  0  0  0  0  0  0  0  0  0
   -3.5425   -7.0960   -1.1889 O   0  0  0  0  0  0  0  0  0  0  0  0
   -3.5507   -4.6147   -1.4898 O   0  0  0  0  0  0  0  0  0  0  0  0
   -1.4596   -5.9434   -2.1222 C   0  0  0  0  0  0  0  0  0  0  0  0
   -0.8928   -4.8001   -2.6535 C   0  0  0  0  0  0  0  0  0  0  0  0
    0.2422   -4.8914   -3.4373 C   0  0  0  0  0  0  0  0  0  0  0  0
    0.8107   -6.1260   -3.6893 C   0  0  0  0  0  0  0  0  0  0  0  0
    0.2443   -7.2692   -3.1572 C   0  0  0  0  0  0  0  0  0  0  0  0
   -0.8882   -7.1775   -2.3699 C   0  0  0  0  0  0  0  0  0  0  0  0
    1.0039    1.9031    0.0027 H   0  0  0  0  0  0  0  0  0  0  0  0
   -0.5459    1.8868   -0.8726 H   0  0  0  0  0  0  0  0  0  0  0  0
   -0.5289    1.8773    0.9072 H   0  0  0  0  0  0  0  0  0  0  0  0
   -1.0205   -0.3814    0.0098 H   0  0  0  0  0  0  0  0  0  0  0  0
    0.5123   -0.3556   -0.8948 H   0  0  0  0  0  0  0  0  0  0  0  0
    1.7647   -0.1336    1.2338 H   0  0  0  0  0  0  0  0  0  0  0  0
    0.2319   -0.1594    2.1383 H   0  0  0  0  0  0  0  0  0  0  0  0
    1.6231   -3.6357    2.3980 H   0  0  0  0  0  0  0  0  0  0  0  0
    2.6261   -2.1681    2.3068 H   0  0  0  0  0  0  0  0  0  0  0  0
    1.1780   -2.1934    3.3415 H   0  0  0  0  0  0  0  0  0  0  0  0
   -1.2861   -2.0038    1.7889 H   0  0  0  0  0  0  0  0  0  0  0  0
   -2.5961   -4.3405    2.0827 H   0  0  0  0  0  0  0  0  0  0  0  0
   -3.0112   -3.6282    0.5052 H   0  0  0  0  0  0  0  0  0  0  0  0
   -1.7359   -7.6177    0.5859 H   0  0  0  0  0  0  0  0  0  0  0  0
   -1.2230   -6.5499    1.9144 H   0  0  0  0  0  0  0  0  0  0  0  0
   -2.7454   -6.0036    3.7278 H   0  0  0  0  0  0  0  0  0  0  0  0
   -4.6906   -6.7216    5.0559 H   0  0  0  0  0  0  0  0  0  0  0  0
   -6.2725   -8.3669    4.1320 H   0  0  0  0  0  0  0  0  0  0  0  0
   -5.9097   -9.2937    1.8797 H   0  0  0  0  0  0  0  0  0  0  0  0
   -3.9670   -8.5722    0.5498 H   0  0  0  0  0  0  0  0  0  0  0  0
   -1.3369   -3.8355   -2.4566 H   0  0  0  0  0  0  0  0  0  0  0  0
    0.6847   -3.9981   -3.8530 H   0  0  0  0  0  0  0  0  0  0  0  0
    1.6970   -6.1973   -4.3022 H   0  0  0  0  0  0  0  0  0  0  0  0
    0.6883   -8.2338   -3.3544 H   0  0  0  0  0  0  0  0  0  0  0  0
   -1.3307   -8.0707   -1.9542 H   0  0  0  0  0  0  0  0  0  0  0  0
  1  2  1  0
  1 28  1  6
  1 29  1  0
  1 30  1  0
  2  3  1  0
  2 31  1  1
  2 32  1  0
  3  4  1  0
  3 33  1  6
  3 34  1  0
  4  5  1  6
  4  6  1  0
  4  7  1  0
  6 35  1  1
  6 36  1  0
  6 37  1  0
  7  8  1  0
  7 38  1  0
  8  9  2  0
  8 10  1  0
 10 11  1  0
 10 39  1  1
 10 40  1  0
 11 12  1  0
 19 11  1  1
 12 13  1  0
 12 41  1  6
 12 42  1  0
 13 18  2  0
 13 14  1  0
 14 15  2  0
 14 43  1  0
 15 16  1  0
 15 44  1  0
 16 17  2  0
 16 45  1  0
 17 18  1  0
 17 46  1  0
 18 47  1  0
 19 20  2  0
 19 21  2  0
 19 22  1  0
 22 27  2  0
 22 23  1  0
 23 24  2  0
 23 48  1  0
 24 25  1  0
 24 49  1  0
 25 26  2  0
 25 50  1  0
 26 27  1  0
 26 51  1  0
 27 52  1  0
M  END
$$$$
