ZINC000409178969
     RDKit          3D

 56 58  0  0  0  0  0  0  0  0999 V2000
    0.1471    1.6878   -0.1674 C   0  0  1  0  0  0  0  0  0  0  0  0
   -0.2247    0.2274   -0.1606 C   0  0  0  0  0  0  0  0  0  0  0  0
   -0.2732   -0.4679    1.0332 C   0  0  0  0  0  0  0  0  0  0  0  0
   -0.6143   -1.8075    1.0394 C   0  0  0  0  0  0  0  0  0  0  0  0
   -0.6666   -2.5656    2.3408 C   0  0  1  0  0  0  0  0  0  0  0  0
   -0.9078   -2.4516   -0.1480 C   0  0  0  0  0  0  0  0  0  0  0  0
   -1.3431   -4.1589   -0.1399 S   0  0  1  0  0  0  0  0  0  0  0  0
   -1.9182   -4.4204    1.1330 O   0  0  0  0  0  0  0  0  0  0  0  0
   -2.0204   -4.4061   -1.3644 O   0  0  0  0  0  0  0  0  0  0  0  0
    0.0672   -5.0247   -0.2026 N   0  0  0  0  0  0  0  0  0  0  0  0
    0.7397   -5.2681   -1.4860 C   0  0  1  0  0  0  0  0  0  0  0  0
    2.1950   -4.8024   -1.3762 C   0  0  1  0  0  0  0  0  0  0  0  0
    2.8572   -5.4890   -0.1795 C   0  0  1  0  0  0  0  0  0  0  0  0
    4.2988   -5.0592   -0.0886 C   0  0  0  0  0  0  0  0  0  0  0  0
    4.7518   -4.2807   -0.9008 O   0  0  0  0  0  0  0  0  0  0  0  0
    5.0845   -5.5400    0.8952 N   0  0  0  0  0  0  0  0  0  0  0  0
    6.4450   -5.2141    0.9263 C   0  0  0  0  0  0  0  0  0  0  0  0
    7.3749   -6.1500    1.3600 C   0  0  0  0  0  0  0  0  0  0  0  0
    8.7170   -5.8253    1.3895 C   0  0  0  0  0  0  0  0  0  0  0  0
    9.1350   -4.5697    0.9883 C   0  0  0  0  0  0  0  0  0  0  0  0
   10.6002   -4.2186    1.0223 C   0  0  1  0  0  0  0  0  0  0  0  0
   11.1876   -4.5496   -0.2035 F   0  0  0  0  0  0  0  0  0  0  0  0
   10.7457   -2.8466    1.2538 F   0  0  0  0  0  0  0  0  0  0  0  0
   11.2274   -4.9337    2.0482 F   0  0  0  0  0  0  0  0  0  0  0  0
    8.2116   -3.6358    0.5556 C   0  0  0  0  0  0  0  0  0  0  0  0
    6.8687   -3.9562    0.5182 C   0  0  0  0  0  0  0  0  0  0  0  0
    2.1257   -5.0950    1.1058 C   0  0  1  0  0  0  0  0  0  0  0  0
    0.6729   -5.5588    1.0248 C   0  0  1  0  0  0  0  0  0  0  0  0
   -0.8602   -1.7560   -1.3416 C   0  0  0  0  0  0  0  0  0  0  0  0
   -1.1806   -2.4581   -2.6361 C   0  0  1  0  0  0  0  0  0  0  0  0
   -0.5228   -0.4155   -1.3475 C   0  0  0  0  0  0  0  0  0  0  0  0
   -0.7531    2.2924   -0.0573 H   0  0  0  0  0  0  0  0  0  0  0  0
    0.8266    1.8936    0.6597 H   0  0  0  0  0  0  0  0  0  0  0  0
    0.6369    1.9336   -1.1097 H   0  0  0  0  0  0  0  0  0  0  0  0
   -0.0442    0.0354    1.9609 H   0  0  0  0  0  0  0  0  0  0  0  0
   -1.6926   -2.5860    2.7084 H   0  0  0  0  0  0  0  0  0  0  0  0
   -0.3175   -3.5858    2.1813 H   0  0  0  0  0  0  0  0  0  0  0  0
   -0.0277   -2.0734    3.0740 H   0  0  0  0  0  0  0  0  0  0  0  0
    0.7133   -6.3332   -1.7161 H   0  0  0  0  0  0  0  0  0  0  0  0
    0.2357   -4.7092   -2.2745 H   0  0  0  0  0  0  0  0  0  0  0  0
    2.7307   -5.0649   -2.2885 H   0  0  0  0  0  0  0  0  0  0  0  0
    2.2216   -3.7218   -1.2362 H   0  0  0  0  0  0  0  0  0  0  0  0
    2.8080   -6.5702   -0.3082 H   0  0  0  0  0  0  0  0  0  0  0  0
    4.7070   -6.1118    1.5818 H   0  0  0  0  0  0  0  0  0  0  0  0
    7.0489   -7.1305    1.6741 H   0  0  0  0  0  0  0  0  0  0  0  0
    9.4406   -6.5526    1.7266 H   0  0  0  0  0  0  0  0  0  0  0  0
    8.5413   -2.6560    0.2429 H   0  0  0  0  0  0  0  0  0  0  0  0
    6.1480   -3.2263    0.1802 H   0  0  0  0  0  0  0  0  0  0  0  0
    2.6122   -5.5657    1.9601 H   0  0  0  0  0  0  0  0  0  0  0  0
    2.1530   -4.0116    1.2224 H   0  0  0  0  0  0  0  0  0  0  0  0
    0.1240   -5.1944    1.8932 H   0  0  0  0  0  0  0  0  0  0  0  0
    0.6379   -6.6479    0.9986 H   0  0  0  0  0  0  0  0  0  0  0  0
   -2.2604   -2.4709   -2.7847 H   0  0  0  0  0  0  0  0  0  0  0  0
   -0.7063   -1.9297   -3.4630 H   0  0  0  0  0  0  0  0  0  0  0  0
   -0.8071   -3.4813   -2.5966 H   0  0  0  0  0  0  0  0  0  0  0  0
   -0.4856    0.1279   -2.2801 H   0  0  0  0  0  0  0  0  0  0  0  0
  1  2  1  0
  1 32  1  1
  1 33  1  0
  1 34  1  0
  2 31  2  0
  2  3  1  0
  3  4  2  0
  3 35  1  0
  4  5  1  0
  4  6  1  0
  5 36  1  1
  5 37  1  0
  5 38  1  0
  6  7  1  0
  6 29  2  0
  7  8  2  0
  7  9  2  0
  7 10  1  6
 10 28  1  0
 10 11  1  0
 11 12  1  0
 11 39  1  6
 11 40  1  0
 12 13  1  0
 12 41  1  6
 12 42  1  0
 13 14  1  0
 13 27  1  0
 13 43  1  6
 14 15  2  0
 14 16  1  0
 16 17  1  0
 16 44  1  0
 17 26  2  0
 17 18  1  0
 18 19  2  0
 18 45  1  0
 19 20  1  0
 19 46  1  0
 20 21  1  0
 20 25  2  0
 21 22  1  6
 21 23  1  0
 21 24  1  0
 25 26  1  0
 25 47  1  0
 26 48  1  0
 27 28  1  0
 27 49  1  1
 27 50  1  0
 28 51  1  1
 28 52  1  0
 29 30  1  0
 29 31  1  0
 30 53  1  6
 30 54  1  0
 30 55  1  0
 31 56  1  0
M  END
$$$$
