ZINC000000885023
     RDKit          3D

 61 63  0  0  0  0  0  0  0  0999 V2000
    1.0261   -5.8997  -10.0417 C   0  0  1  0  0  0  0  0  0  0  0  0
    1.5296   -4.5675   -9.9243 O   0  0  0  0  0  0  0  0  0  0  0  0
    1.7785   -4.1101   -8.6680 C   0  0  0  0  0  0  0  0  0  0  0  0
    1.5488   -4.9275   -7.5734 C   0  0  0  0  0  0  0  0  0  0  0  0
    1.8029   -4.4610   -6.2967 C   0  0  0  0  0  0  0  0  0  0  0  0
    2.2856   -3.1796   -6.1092 C   0  0  0  0  0  0  0  0  0  0  0  0
    2.6068   -2.5909   -4.4798 S   0  0  1  0  0  0  0  0  0  0  0  0
    2.5221   -1.1738   -4.5412 O   0  0  0  0  0  0  0  0  0  0  0  0
    1.8128   -3.3798   -3.6043 O   0  0  0  0  0  0  0  0  0  0  0  0
    4.1853   -2.9504   -4.1310 N   0  0  0  0  0  0  0  0  0  0  0  0
    4.5399   -4.2799   -3.6281 C   0  0  1  0  0  0  0  0  0  0  0  0
    4.9711   -5.1533   -4.7780 C   0  0  0  0  0  0  0  0  0  0  0  0
    4.9812   -4.7090   -5.9064 O   0  0  0  0  0  0  0  0  0  0  0  0
    5.3455   -6.4283   -4.5524 N   0  0  0  0  0  0  0  0  0  0  0  0
    5.7647   -7.2773   -5.6702 C   0  0  1  0  0  0  0  0  0  0  0  0
    7.2497   -7.0465   -5.9571 C   0  0  1  0  0  0  0  0  0  0  0  0
    7.6875   -7.9332   -7.1245 C   0  0  1  0  0  0  0  0  0  0  0  0
    7.4604   -9.4023   -6.7622 C   0  0  1  0  0  0  0  0  0  0  0  0
    5.9754   -9.6331   -6.4753 C   0  0  1  0  0  0  0  0  0  0  0  0
    5.5376   -8.7464   -5.3079 C   0  0  1  0  0  0  0  0  0  0  0  0
    5.2271   -1.9389   -4.3253 C   0  0  1  0  0  0  0  0  0  0  0  0
    5.4921   -1.2336   -3.0201 C   0  0  0  0  0  0  0  0  0  0  0  0
    4.8523   -0.0415   -2.7364 C   0  0  0  0  0  0  0  0  0  0  0  0
    5.0954    0.6054   -1.5392 C   0  0  0  0  0  0  0  0  0  0  0  0
    5.9779    0.0601   -0.6256 C   0  0  0  0  0  0  0  0  0  0  0  0
    6.6170   -1.1325   -0.9090 C   0  0  0  0  0  0  0  0  0  0  0  0
    6.3706   -1.7816   -2.1043 C   0  0  0  0  0  0  0  0  0  0  0  0
    2.5176   -2.3587   -7.1975 C   0  0  0  0  0  0  0  0  0  0  0  0
    2.2701   -2.8216   -8.4795 C   0  0  0  0  0  0  0  0  0  0  0  0
    2.4977   -2.0155   -9.5509 O   0  0  0  0  0  0  0  0  0  0  0  0
    2.9924   -0.7023   -9.2812 C   0  0  1  0  0  0  0  0  0  0  0  0
    1.7440   -6.5986   -9.6125 H   0  0  0  0  0  0  0  0  0  0  0  0
    0.0788   -5.9785   -9.5083 H   0  0  0  0  0  0  0  0  0  0  0  0
    0.8715   -6.1382  -11.0940 H   0  0  0  0  0  0  0  0  0  0  0  0
    1.1709   -5.9290   -7.7172 H   0  0  0  0  0  0  0  0  0  0  0  0
    1.6233   -5.0993   -5.4442 H   0  0  0  0  0  0  0  0  0  0  0  0
    5.3573   -4.1916   -2.9125 H   0  0  0  0  0  0  0  0  0  0  0  0
    3.6744   -4.7257   -3.1379 H   0  0  0  0  0  0  0  0  0  0  0  0
    5.3374   -6.7836   -3.6498 H   0  0  0  0  0  0  0  0  0  0  0  0
    5.1804   -7.0270   -6.5557 H   0  0  0  0  0  0  0  0  0  0  0  0
    7.4115   -5.9999   -6.2152 H   0  0  0  0  0  0  0  0  0  0  0  0
    7.8340   -7.2968   -5.0716 H   0  0  0  0  0  0  0  0  0  0  0  0
    7.1032   -7.6829   -8.0099 H   0  0  0  0  0  0  0  0  0  0  0  0
    8.7455   -7.7688   -7.3289 H   0  0  0  0  0  0  0  0  0  0  0  0
    7.7723  -10.0340   -7.5939 H   0  0  0  0  0  0  0  0  0  0  0  0
    8.0447   -9.6526   -5.8767 H   0  0  0  0  0  0  0  0  0  0  0  0
    5.3911   -9.3828   -7.3608 H   0  0  0  0  0  0  0  0  0  0  0  0
    5.8136  -10.6797   -6.2172 H   0  0  0  0  0  0  0  0  0  0  0  0
    6.1219   -8.9967   -4.4224 H   0  0  0  0  0  0  0  0  0  0  0  0
    4.4796   -8.9109   -5.1035 H   0  0  0  0  0  0  0  0  0  0  0  0
    6.1418   -2.4210   -4.6700 H   0  0  0  0  0  0  0  0  0  0  0  0
    4.8957   -1.2143   -5.0691 H   0  0  0  0  0  0  0  0  0  0  0  0
    4.1628    0.3846   -3.4501 H   0  0  0  0  0  0  0  0  0  0  0  0
    4.5961    1.5372   -1.3178 H   0  0  0  0  0  0  0  0  0  0  0  0
    6.1683    0.5659    0.3095 H   0  0  0  0  0  0  0  0  0  0  0  0
    7.3067   -1.5584   -0.1953 H   0  0  0  0  0  0  0  0  0  0  0  0
    6.8699   -2.7133   -2.3257 H   0  0  0  0  0  0  0  0  0  0  0  0
    2.8948   -1.3578   -7.0483 H   0  0  0  0  0  0  0  0  0  0  0  0
    3.1299   -0.1660  -10.2202 H   0  0  0  0  0  0  0  0  0  0  0  0
    2.2775   -0.1656   -8.6576 H   0  0  0  0  0  0  0  0  0  0  0  0
    3.9472   -0.7736   -8.7603 H   0  0  0  0  0  0  0  0  0  0  0  0
  1  2  1  0
  1 32  1  1
  1 33  1  0
  1 34  1  0
  2  3  1  0
  3 29  2  0
  3  4  1  0
  4  5  2  0
  4 35  1  0
  5  6  1  0
  5 36  1  0
  6  7  1  0
  6 28  2  0
  7  8  2  0
  7  9  2  0
  7 10  1  1
 10 11  1  0
 10 21  1  0
 11 12  1  0
 11 37  1  1
 11 38  1  0
 12 13  2  0
 12 14  1  0
 14 15  1  0
 14 39  1  0
 15 20  1  0
 15 16  1  0
 15 40  1  6
 16 17  1  0
 16 41  1  6
 16 42  1  0
 17 18  1  0
 17 43  1  6
 17 44  1  0
 18 19  1  0
 18 45  1  6
 18 46  1  0
 19 20  1  0
 19 47  1  6
 19 48  1  0
 20 49  1  1
 20 50  1  0
 21 22  1  0
 21 51  1  6
 21 52  1  0
 22 27  2  0
 22 23  1  0
 23 24  2  0
 23 53  1  0
 24 25  1  0
 24 54  1  0
 25 26  2  0
 25 55  1  0
 26 27  1  0
 26 56  1  0
 27 57  1  0
 28 29  1  0
 28 58  1  0
 29 30  1  0
 30 31  1  0
 31 59  1  6
 31 60  1  0
 31 61  1  0
M  END
$$$$
