ZINC000024712255
     RDKit          3D

 40 41  0  0  1  0  0  0  0  0999 V2000
   -0.3143    1.6913    0.2584 C   0  0  1  0  0  0  0  0  0  0  0  0
   -0.1620    0.2383    0.3661 N   0  0  0  0  0  0  0  0  0  0  0  0
    1.1064   -0.3333    0.8251 C   0  0  1  0  0  0  0  0  0  0  0  0
   -1.1888   -0.5727    0.0429 C   0  0  0  0  0  0  0  0  0  0  0  0
   -2.2041   -0.1068   -0.4293 O   0  0  0  0  0  0  0  0  0  0  0  0
   -1.0753   -2.0585    0.2683 C   0  0  2  0  0  0  0  0  0  0  0  0
   -0.6205   -2.2522    1.2397 H   0  0  0  0  0  0  0  0  0  0  0  0
   -0.2203   -2.6948   -0.8478 C   0  0  1  0  0  0  0  0  0  0  0  0
   -0.9439   -4.0410   -1.1151 C   0  0  1  0  0  0  0  0  0  0  0  0
   -2.4269   -3.6432   -0.9093 C   0  0  1  0  0  0  0  0  0  0  0  0
   -2.4079   -2.6766    0.2079 N   0  0  0  0  0  0  0  0  0  0  0  0
   -3.6767   -2.3453    1.2191 S   0  0  1  0  0  0  0  0  0  0  0  0
   -3.3592   -1.1252    1.8748 O   0  0  0  0  0  0  0  0  0  0  0  0
   -4.8592   -2.5312    0.4534 O   0  0  0  0  0  0  0  0  0  0  0  0
   -3.6898   -3.5911    2.4651 C   0  0  0  0  0  0  0  0  0  0  0  0
   -4.7183   -4.5129    2.5100 C   0  0  0  0  0  0  0  0  0  0  0  0
   -4.7287   -5.4905    3.4876 C   0  0  0  0  0  0  0  0  0  0  0  0
   -5.8507   -6.4954    3.5360 C   0  0  1  0  0  0  0  0  0  0  0  0
   -5.5144   -7.6077    2.7570 F   0  0  0  0  0  0  0  0  0  0  0  0
   -6.0588   -6.8986    4.8594 F   0  0  0  0  0  0  0  0  0  0  0  0
   -7.0205   -5.9128    3.0366 F   0  0  0  0  0  0  0  0  0  0  0  0
   -3.7102   -5.5467    4.4204 C   0  0  0  0  0  0  0  0  0  0  0  0
   -2.6808   -4.6252    4.3765 C   0  0  0  0  0  0  0  0  0  0  0  0
   -2.6671   -3.6501    3.3954 C   0  0  0  0  0  0  0  0  0  0  0  0
   -1.3746   -2.4924    3.3396 Cl  0  0  0  0  0  0  0  0  0  0  0  0
    0.6136    2.1773    0.5599 H   0  0  0  0  0  0  0  0  0  0  0  0
   -0.5451    1.9570   -0.7732 H   0  0  0  0  0  0  0  0  0  0  0  0
   -1.1248    2.0209    0.9085 H   0  0  0  0  0  0  0  0  0  0  0  0
    1.0994   -0.4068    1.9126 H   0  0  0  0  0  0  0  0  0  0  0  0
    1.2343   -1.3265    0.3947 H   0  0  0  0  0  0  0  0  0  0  0  0
    1.9293    0.3082    0.5096 H   0  0  0  0  0  0  0  0  0  0  0  0
   -0.2255   -2.0702   -1.7411 H   0  0  0  0  0  0  0  0  0  0  0  0
    0.7990   -2.8668   -0.5021 H   0  0  0  0  0  0  0  0  0  0  0  0
   -0.7690   -4.3828   -2.1352 H   0  0  0  0  0  0  0  0  0  0  0  0
   -0.6389   -4.7986   -0.3932 H   0  0  0  0  0  0  0  0  0  0  0  0
   -2.8227   -3.1754   -1.8107 H   0  0  0  0  0  0  0  0  0  0  0  0
   -3.0207   -4.5175   -0.6427 H   0  0  0  0  0  0  0  0  0  0  0  0
   -5.5144   -4.4694    1.7814 H   0  0  0  0  0  0  0  0  0  0  0  0
   -3.7189   -6.3106    5.1838 H   0  0  0  0  0  0  0  0  0  0  0  0
   -1.8850   -4.6692    5.1053 H   0  0  0  0  0  0  0  0  0  0  0  0
  1  2  1  0
  1 26  1  1
  1 27  1  0
  1 28  1  0
  2  3  1  0
  2  4  1  0
  3 29  1  1
  3 30  1  0
  3 31  1  0
  4  5  2  0
  4  6  1  0
  6  7  1  1
  6 11  1  0
  6  8  1  0
  8  9  1  0
  8 32  1  6
  8 33  1  0
  9 10  1  0
  9 34  1  6
  9 35  1  0
 10 11  1  0
 10 36  1  6
 10 37  1  0
 12 11  1  6
 12 13  2  0
 12 14  2  0
 12 15  1  0
 15 24  2  0
 15 16  1  0
 16 17  2  0
 16 38  1  0
 17 18  1  0
 17 22  1  0
 18 19  1  6
 18 20  1  0
 18 21  1  0
 22 23  2  0
 22 39  1  0
 23 24  1  0
 23 40  1  0
 24 25  1  0
M  END
$$$$
