ZINC000072108397
     RDKit          3D

 37 38  0  0  0  0  0  0  0  0999 V2000
   -0.0184    1.5028    0.0103 C   0  0  1  0  0  0  0  0  0  0  0  0
    0.0021   -0.0041    0.0020 C   0  0  0  0  0  0  0  0  0  0  0  0
    1.0605   -0.5961   -0.0113 O   0  0  0  0  0  0  0  0  0  0  0  0
   -1.1558   -0.6938    0.0094 N   0  0  0  0  0  0  0  0  0  0  0  0
   -2.4458    0.0103    0.0193 C   0  0  1  0  0  0  0  0  0  0  0  0
   -3.2812   -0.4806   -1.1695 C   0  0  1  0  0  0  0  0  0  0  0  0
   -3.2765   -1.9502   -1.1718 N   0  0  0  0  0  0  0  0  0  0  0  0
   -4.6992   -2.7976   -1.1639 S   0  0  1  0  0  0  0  0  0  0  0  0
   -4.4009   -4.0775   -0.6233 O   0  0  0  0  0  0  0  0  0  0  0  0
   -5.6799   -1.9301   -0.6117 O   0  0  0  0  0  0  0  0  0  0  0  0
   -5.1582   -3.0620   -2.8444 C   0  0  0  0  0  0  0  0  0  0  0  0
   -5.9462   -2.1344   -3.4998 C   0  0  0  0  0  0  0  0  0  0  0  0
   -6.3063   -2.3417   -4.8182 C   0  0  0  0  0  0  0  0  0  0  0  0
   -5.8781   -3.4765   -5.4813 C   0  0  0  0  0  0  0  0  0  0  0  0
   -6.2710   -3.7028   -6.9185 C   0  0  1  0  0  0  0  0  0  0  0  0
   -5.3101   -3.1324   -7.7601 F   0  0  0  0  0  0  0  0  0  0  0  0
   -6.3533   -5.0768   -7.1686 F   0  0  0  0  0  0  0  0  0  0  0  0
   -7.5145   -3.1094   -7.1609 F   0  0  0  0  0  0  0  0  0  0  0  0
   -5.0890   -4.4035   -4.8264 C   0  0  0  0  0  0  0  0  0  0  0  0
   -4.7257   -4.1942   -3.5091 C   0  0  0  0  0  0  0  0  0  0  0  0
   -1.9865   -2.6543   -1.1817 C   0  0  1  0  0  0  0  0  0  0  0  0
   -1.1511   -2.1634    0.0014 C   0  0  1  0  0  0  0  0  0  0  0  0
    1.0042    1.8801    0.0026 H   0  0  0  0  0  0  0  0  0  0  0  0
   -0.5455    1.8639   -0.8728 H   0  0  0  0  0  0  0  0  0  0  0  0
   -0.5286    1.8543    0.9071 H   0  0  0  0  0  0  0  0  0  0  0  0
   -2.9722   -0.2036    0.9495 H   0  0  0  0  0  0  0  0  0  0  0  0
   -2.2775    1.0835   -0.0702 H   0  0  0  0  0  0  0  0  0  0  0  0
   -4.3046   -0.1182   -1.0719 H   0  0  0  0  0  0  0  0  0  0  0  0
   -2.8470   -0.1119   -2.0989 H   0  0  0  0  0  0  0  0  0  0  0  0
   -6.2808   -1.2478   -2.9816 H   0  0  0  0  0  0  0  0  0  0  0  0
   -6.9225   -1.6173   -5.3300 H   0  0  0  0  0  0  0  0  0  0  0  0
   -4.7541   -5.2898   -5.3446 H   0  0  0  0  0  0  0  0  0  0  0  0
   -4.1092   -4.9184   -2.9974 H   0  0  0  0  0  0  0  0  0  0  0  0
   -2.1549   -3.7275   -1.0922 H   0  0  0  0  0  0  0  0  0  0  0  0
   -1.4602   -2.4404   -2.1119 H   0  0  0  0  0  0  0  0  0  0  0  0
   -0.1281   -2.5265   -0.0974 H   0  0  0  0  0  0  0  0  0  0  0  0
   -1.5839   -2.5303    0.9321 H   0  0  0  0  0  0  0  0  0  0  0  0
  1  2  1  0
  1 23  1  6
  1 24  1  0
  1 25  1  0
  2  3  2  0
  2  4  1  0
  4 22  1  0
  4  5  1  0
  5  6  1  0
  5 26  1  1
  5 27  1  0
  6  7  1  0
  6 28  1  1
  6 29  1  0
  8  7  1  6
  7 21  1  0
  8  9  2  0
  8 10  2  0
  8 11  1  0
 11 20  2  0
 11 12  1  0
 12 13  2  0
 12 30  1  0
 13 14  1  0
 13 31  1  0
 14 15  1  0
 14 19  2  0
 15 16  1  6
 15 17  1  0
 15 18  1  0
 19 20  1  0
 19 32  1  0
 20 33  1  0
 21 22  1  0
 21 34  1  1
 21 35  1  0
 22 36  1  6
 22 37  1  0
M  END
$$$$
