ZINC000009217098
     RDKit          3D

 47 49  0  0  1  0  0  0  0  0999 V2000
    0.0244    1.5110   -0.0021 C   0  0  1  0  0  0  0  0  0  0  0  0
    0.0354    0.0041   -0.0068 C   0  0  0  0  0  0  0  0  0  0  0  0
    0.0313   -0.6834   -1.2061 C   0  0  0  0  0  0  0  0  0  0  0  0
    0.0414   -2.0657   -1.2105 C   0  0  0  0  0  0  0  0  0  0  0  0
    0.0561   -2.7605   -0.0156 C   0  0  0  0  0  0  0  0  0  0  0  0
    0.0684   -4.5225   -0.0211 S   0  0  1  0  0  0  0  0  0  0  0  0
   -0.4629   -4.9314    1.2318 O   0  0  0  0  0  0  0  0  0  0  0  0
   -0.4836   -4.9237   -1.2676 O   0  0  0  0  0  0  0  0  0  0  0  0
    1.6535   -5.0016   -0.0357 N   0  0  0  0  0  0  0  0  0  0  0  0
    2.4678   -5.2403   -1.2412 C   0  0  1  0  0  0  0  0  0  0  0  0
    3.9323   -5.0455   -0.7754 C   0  0  1  0  0  0  0  0  0  0  0  0
    3.8883   -5.6515    0.6523 C   0  0  1  0  0  0  0  0  0  0  0  0
    2.4835   -5.2532    1.1514 C   0  0  2  0  0  0  0  0  0  0  0  0
    2.5486   -4.3526    1.7619 H   0  0  0  0  0  0  0  0  0  0  0  0
    1.8886   -6.3778    1.9591 C   0  0  0  0  0  0  0  0  0  0  0  0
    0.8624   -6.9106    1.5929 O   0  0  0  0  0  0  0  0  0  0  0  0
    2.4970   -6.7916    3.0883 N   0  0  0  0  0  0  0  0  0  0  0  0
    1.8955   -7.7685    3.8894 C   0  0  0  0  0  0  0  0  0  0  0  0
    2.0220   -7.7100    5.2712 C   0  0  0  0  0  0  0  0  0  0  0  0
    1.4271   -8.6758    6.0591 C   0  0  0  0  0  0  0  0  0  0  0  0
    0.7065   -9.7005    5.4735 C   0  0  0  0  0  0  0  0  0  0  0  0
    0.0592  -10.7530    6.3363 C   0  0  1  0  0  0  0  0  0  0  0  0
   -1.2369  -10.3477    6.6726 F   0  0  0  0  0  0  0  0  0  0  0  0
    0.0024  -11.9615    5.6340 F   0  0  0  0  0  0  0  0  0  0  0  0
    0.8111  -10.9266    7.5032 F   0  0  0  0  0  0  0  0  0  0  0  0
    0.5783   -9.7614    4.0980 C   0  0  0  0  0  0  0  0  0  0  0  0
    1.1660   -8.7954    3.3048 C   0  0  0  0  0  0  0  0  0  0  0  0
    0.0616   -2.0731    1.1837 C   0  0  0  0  0  0  0  0  0  0  0  0
    0.0554   -0.6908    1.1880 C   0  0  0  0  0  0  0  0  0  0  0  0
    1.0493    1.8819   -0.0137 H   0  0  0  0  0  0  0  0  0  0  0  0
   -0.5031    1.8733   -0.8845 H   0  0  0  0  0  0  0  0  0  0  0  0
   -0.4809    1.8678    0.8953 H   0  0  0  0  0  0  0  0  0  0  0  0
    0.0198   -0.1405   -2.1397 H   0  0  0  0  0  0  0  0  0  0  0  0
    0.0374   -2.6028   -2.1475 H   0  0  0  0  0  0  0  0  0  0  0  0
    2.3176   -6.2566   -1.6054 H   0  0  0  0  0  0  0  0  0  0  0  0
    2.2173   -4.5173   -2.0175 H   0  0  0  0  0  0  0  0  0  0  0  0
    4.6220   -5.5982   -1.4133 H   0  0  0  0  0  0  0  0  0  0  0  0
    4.1947   -3.9880   -0.7431 H   0  0  0  0  0  0  0  0  0  0  0  0
    3.9952   -6.7356    0.6145 H   0  0  0  0  0  0  0  0  0  0  0  0
    4.6591   -5.2087    1.2831 H   0  0  0  0  0  0  0  0  0  0  0  0
    3.3518   -6.4122    3.3457 H   0  0  0  0  0  0  0  0  0  0  0  0
    2.5852   -6.9103    5.7290 H   0  0  0  0  0  0  0  0  0  0  0  0
    1.5251   -8.6309    7.1337 H   0  0  0  0  0  0  0  0  0  0  0  0
    0.0149  -10.5629    3.6437 H   0  0  0  0  0  0  0  0  0  0  0  0
    1.0655   -8.8435    2.2306 H   0  0  0  0  0  0  0  0  0  0  0  0
    0.0735   -2.6160    2.1173 H   0  0  0  0  0  0  0  0  0  0  0  0
    0.0597   -0.1537    2.1250 H   0  0  0  0  0  0  0  0  0  0  0  0
  1  2  1  0
  1 30  1  6
  1 31  1  0
  1 32  1  0
  2 29  2  0
  2  3  1  0
  3  4  2  0
  3 33  1  0
  4  5  1  0
  4 34  1  0
  5  6  1  0
  5 28  2  0
  6  7  2  0
  6  8  2  0
  6  9  1  6
  9 13  1  0
  9 10  1  0
 10 11  1  0
 10 35  1  6
 10 36  1  0
 11 12  1  0
 11 37  1  6
 11 38  1  0
 12 13  1  0
 12 39  1  6
 12 40  1  0
 13 14  1  1
 13 15  1  0
 15 16  2  0
 15 17  1  0
 17 18  1  0
 17 41  1  0
 18 27  2  0
 18 19  1  0
 19 20  2  0
 19 42  1  0
 20 21  1  0
 20 43  1  0
 21 22  1  0
 21 26  2  0
 22 23  1  1
 22 24  1  0
 22 25  1  0
 26 27  1  0
 26 44  1  0
 27 45  1  0
 28 29  1  0
 28 46  1  0
 29 47  1  0
M  END
$$$$
