ZINC000004888779
     RDKit          3D

 49 50  0  0  0  0  0  0  0  0999 V2000
   -0.0187    1.5258    0.0104 C   0  0  1  0  0  0  0  0  0  0  0  0
    0.0021   -0.0041    0.0020 C   0  0  1  0  0  0  0  0  0  0  0  0
    0.7421   -0.5109    1.2415 C   0  0  1  0  0  0  0  0  0  0  0  0
   -1.4333   -0.5336    0.0129 C   0  0  1  0  0  0  0  0  0  0  0  0
    0.7074   -0.4901   -1.2379 C   0  0  0  0  0  0  0  0  0  0  0  0
    1.1500    0.3085   -2.0362 O   0  0  0  0  0  0  0  0  0  0  0  0
    0.8465   -1.8122   -1.4596 N   0  0  0  0  0  0  0  0  0  0  0  0
    1.5322   -2.2846   -2.6649 C   0  0  1  0  0  0  0  0  0  0  0  0
    3.0416   -2.3153   -2.4139 C   0  0  1  0  0  0  0  0  0  0  0  0
    3.7577   -2.7766   -3.6872 C   0  0  1  0  0  0  0  0  0  0  0  0
    3.1898   -4.0644   -4.1089 N   0  0  0  0  0  0  0  0  0  0  0  0
    4.1699   -5.3728   -4.3729 S   0  0  1  0  0  0  0  0  0  0  0  0
    3.4632   -6.2317   -5.2572 O   0  0  0  0  0  0  0  0  0  0  0  0
    5.4619   -4.8551   -4.6593 O   0  0  0  0  0  0  0  0  0  0  0  0
    4.3083   -6.2378   -2.8440 C   0  0  0  0  0  0  0  0  0  0  0  0
    5.3165   -5.9138   -1.9554 C   0  0  0  0  0  0  0  0  0  0  0  0
    5.4250   -6.5924   -0.7560 C   0  0  0  0  0  0  0  0  0  0  0  0
    4.5252   -7.5945   -0.4449 C   0  0  0  0  0  0  0  0  0  0  0  0
    4.6438   -8.3346    0.8625 C   0  0  1  0  0  0  0  0  0  0  0  0
    3.8909   -7.6765    1.8409 F   0  0  0  0  0  0  0  0  0  0  0  0
    4.1648   -9.6395    0.7048 F   0  0  0  0  0  0  0  0  0  0  0  0
    5.9859   -8.3748    1.2554 F   0  0  0  0  0  0  0  0  0  0  0  0
    3.5162   -7.9175   -1.3329 C   0  0  0  0  0  0  0  0  0  0  0  0
    3.4053   -7.2364   -2.5307 C   0  0  0  0  0  0  0  0  0  0  0  0
    1.7357   -4.1694   -4.2915 C   0  0  1  0  0  0  0  0  0  0  0  0
    1.0423   -3.6925   -3.0115 C   0  0  1  0  0  0  0  0  0  0  0  0
    1.0039    1.9031    0.0027 H   0  0  0  0  0  0  0  0  0  0  0  0
   -0.5459    1.8868   -0.8726 H   0  0  0  0  0  0  0  0  0  0  0  0
   -0.5289    1.8773    0.9072 H   0  0  0  0  0  0  0  0  0  0  0  0
    0.2319   -0.1594    2.1383 H   0  0  0  0  0  0  0  0  0  0  0  0
    0.7568   -1.6008    1.2356 H   0  0  0  0  0  0  0  0  0  0  0  0
    1.7647   -0.1336    1.2338 H   0  0  0  0  0  0  0  0  0  0  0  0
   -1.9605   -0.1726   -0.8702 H   0  0  0  0  0  0  0  0  0  0  0  0
   -1.4185   -1.6235    0.0069 H   0  0  0  0  0  0  0  0  0  0  0  0
   -1.9435   -0.1821    0.9097 H   0  0  0  0  0  0  0  0  0  0  0  0
    0.4926   -2.4509   -0.8211 H   0  0  0  0  0  0  0  0  0  0  0  0
    1.3158   -1.6105   -3.4937 H   0  0  0  0  0  0  0  0  0  0  0  0
    3.3859   -1.3169   -2.1443 H   0  0  0  0  0  0  0  0  0  0  0  0
    3.2613   -3.0081   -1.6016 H   0  0  0  0  0  0  0  0  0  0  0  0
    3.6134   -2.0379   -4.4756 H   0  0  0  0  0  0  0  0  0  0  0  0
    4.8222   -2.8953   -3.4851 H   0  0  0  0  0  0  0  0  0  0  0  0
    6.0195   -5.1309   -2.1985 H   0  0  0  0  0  0  0  0  0  0  0  0
    6.2131   -6.3398   -0.0621 H   0  0  0  0  0  0  0  0  0  0  0  0
    2.8129   -8.7003   -1.0897 H   0  0  0  0  0  0  0  0  0  0  0  0
    2.6170   -7.4887   -3.2244 H   0  0  0  0  0  0  0  0  0  0  0  0
    1.4266   -3.5443   -5.1292 H   0  0  0  0  0  0  0  0  0  0  0  0
    1.4661   -5.2070   -4.4883 H   0  0  0  0  0  0  0  0  0  0  0  0
    1.2808   -4.3723   -2.1936 H   0  0  0  0  0  0  0  0  0  0  0  0
   -0.0364   -3.6742   -3.1672 H   0  0  0  0  0  0  0  0  0  0  0  0
  1  2  1  0
  1 27  1  6
  1 28  1  0
  1 29  1  0
  2  3  1  0
  2  4  1  0
  2  5  1  6
  3 30  1  1
  3 31  1  0
  3 32  1  0
  4 33  1  6
  4 34  1  0
  4 35  1  0
  5  6  2  0
  5  7  1  0
  7  8  1  0
  7 36  1  0
  8 26  1  0
  8  9  1  0
  8 37  1  6
  9 10  1  0
  9 38  1  1
  9 39  1  0
 10 11  1  0
 10 40  1  6
 10 41  1  0
 12 11  1  1
 11 25  1  0
 12 13  2  0
 12 14  2  0
 12 15  1  0
 15 24  2  0
 15 16  1  0
 16 17  2  0
 16 42  1  0
 17 18  1  0
 17 43  1  0
 18 19  1  0
 18 23  2  0
 19 20  1  1
 19 21  1  0
 19 22  1  0
 23 24  1  0
 23 44  1  0
 24 45  1  0
 25 26  1  0
 25 46  1  6
 25 47  1  0
 26 48  1  1
 26 49  1  0
M  END
$$$$
