ZINC000409068262
     RDKit          3D

 50 51  0  0  0  0  0  0  0  0999 V2000
   -0.0173    1.4248    0.0099 C   0  0  1  0  0  0  0  0  0  0  0  0
    0.0021   -0.0041    0.0020 O   0  0  0  0  0  0  0  0  0  0  0  0
    0.6518   -0.5703   -1.1379 C   0  0  1  0  0  0  0  0  0  0  0  0
    0.6131   -2.0967   -1.0411 C   0  0  1  0  0  0  0  0  0  0  0  0
    1.3087   -2.7029   -2.2615 C   0  0  1  0  0  0  0  0  0  0  0  0
    1.2717   -4.1645   -2.1688 N   0  0  0  0  0  0  0  0  0  0  0  0
    1.8279   -4.9157   -3.1398 C   0  0  0  0  0  0  0  0  0  0  0  0
    2.3592   -4.3816   -4.0903 O   0  0  0  0  0  0  0  0  0  0  0  0
    1.7898   -6.4192   -3.0444 C   0  0  1  0  0  0  0  0  0  0  0  0
    2.4559   -6.9996   -4.2130 N   0  0  0  0  0  0  0  0  0  0  0  0
    3.9101   -7.1769   -4.2144 C   0  0  1  0  0  0  0  0  0  0  0  0
    4.2576   -8.4830   -3.5479 C   0  0  0  0  0  0  0  0  0  0  0  0
    4.4803   -8.5248   -2.1842 C   0  0  0  0  0  0  0  0  0  0  0  0
    4.7990   -9.7221   -1.5719 C   0  0  0  0  0  0  0  0  0  0  0  0
    4.8949  -10.8801   -2.3248 C   0  0  0  0  0  0  0  0  0  0  0  0
    5.2060  -12.0511   -1.7273 F   0  0  0  0  0  0  0  0  0  0  0  0
    4.6713  -10.8371   -3.6905 C   0  0  0  0  0  0  0  0  0  0  0  0
    4.3479   -9.6396   -4.2999 C   0  0  0  0  0  0  0  0  0  0  0  0
    1.5650   -7.4555   -5.5324 S   0  0  1  0  0  0  0  0  0  0  0  0
    2.2600   -8.5413   -6.1302 O   0  0  0  0  0  0  0  0  0  0  0  0
    0.2158   -7.5427   -5.0949 O   0  0  0  0  0  0  0  0  0  0  0  0
    1.6282   -6.1274   -6.6886 C   0  0  0  0  0  0  0  0  0  0  0  0
    0.6773   -5.1251   -6.6427 C   0  0  0  0  0  0  0  0  0  0  0  0
    0.7269   -4.0832   -7.5498 C   0  0  0  0  0  0  0  0  0  0  0  0
    1.7277   -4.0432   -8.5024 C   0  0  0  0  0  0  0  0  0  0  0  0
    2.6792   -5.0450   -8.5478 C   0  0  0  0  0  0  0  0  0  0  0  0
    2.6321   -6.0847   -7.6380 C   0  0  0  0  0  0  0  0  0  0  0  0
    1.0053    1.8021    0.0021 H   0  0  0  0  0  0  0  0  0  0  0  0
   -0.5445    1.7859   -0.8732 H   0  0  0  0  0  0  0  0  0  0  0  0
   -0.5275    1.7763    0.9067 H   0  0  0  0  0  0  0  0  0  0  0  0
    0.1385   -0.2506   -2.0447 H   0  0  0  0  0  0  0  0  0  0  0  0
    1.6883   -0.2344   -1.1694 H   0  0  0  0  0  0  0  0  0  0  0  0
    1.1264   -2.4164   -0.1342 H   0  0  0  0  0  0  0  0  0  0  0  0
   -0.4234   -2.4326   -1.0095 H   0  0  0  0  0  0  0  0  0  0  0  0
    0.7954   -2.3833   -3.1684 H   0  0  0  0  0  0  0  0  0  0  0  0
    2.3452   -2.3671   -2.2930 H   0  0  0  0  0  0  0  0  0  0  0  0
    0.8468   -4.5917   -1.4086 H   0  0  0  0  0  0  0  0  0  0  0  0
    2.3031   -6.7389   -2.1376 H   0  0  0  0  0  0  0  0  0  0  0  0
    0.7533   -6.7551   -3.0129 H   0  0  0  0  0  0  0  0  0  0  0  0
    4.2742   -7.1850   -5.2418 H   0  0  0  0  0  0  0  0  0  0  0  0
    4.3767   -6.3558   -3.6701 H   0  0  0  0  0  0  0  0  0  0  0  0
    4.4054   -7.6214   -1.5971 H   0  0  0  0  0  0  0  0  0  0  0  0
    4.9736   -9.7544   -0.5066 H   0  0  0  0  0  0  0  0  0  0  0  0
    4.7461  -11.7397   -4.2789 H   0  0  0  0  0  0  0  0  0  0  0  0
    4.1731   -9.6058   -5.3651 H   0  0  0  0  0  0  0  0  0  0  0  0
   -0.1046   -5.1564   -5.8984 H   0  0  0  0  0  0  0  0  0  0  0  0
   -0.0165   -3.3006   -7.5143 H   0  0  0  0  0  0  0  0  0  0  0  0
    1.7661   -3.2295   -9.2116 H   0  0  0  0  0  0  0  0  0  0  0  0
    3.4610   -5.0139   -9.2923 H   0  0  0  0  0  0  0  0  0  0  0  0
    3.3755   -6.8673   -7.6734 H   0  0  0  0  0  0  0  0  0  0  0  0
  1  2  1  0
  1 28  1  6
  1 29  1  0
  1 30  1  0
  2  3  1  0
  3  4  1  0
  3 31  1  6
  3 32  1  0
  4  5  1  0
  4 33  1  1
  4 34  1  0
  5  6  1  0
  5 35  1  6
  5 36  1  0
  6  7  1  0
  6 37  1  0
  7  8  2  0
  7  9  1  0
  9 10  1  0
  9 38  1  1
  9 39  1  0
 10 11  1  0
 19 10  1  1
 11 12  1  0
 11 40  1  6
 11 41  1  0
 12 18  2  0
 12 13  1  0
 13 14  2  0
 13 42  1  0
 14 15  1  0
 14 43  1  0
 15 16  1  0
 15 17  2  0
 17 18  1  0
 17 44  1  0
 18 45  1  0
 19 20  2  0
 19 21  2  0
 19 22  1  0
 22 27  2  0
 22 23  1  0
 23 24  2  0
 23 46  1  0
 24 25  1  0
 24 47  1  0
 25 26  2  0
 25 48  1  0
 26 27  1  0
 26 49  1  0
 27 50  1  0
M  END
$$$$
