ZINC000016576325
     RDKit          3D

 62 64  0  0  1  0  0  0  0  0999 V2000
   -0.0187    1.5258    0.0104 C   0  0  1  0  0  0  0  0  0  0  0  0
    0.0021   -0.0041    0.0020 C   0  0  2  0  0  0  0  0  0  0  0  0
    0.5293   -0.3651    0.8851 H   0  0  0  0  0  0  0  0  0  0  0  0
    0.7182   -0.4975   -1.2568 C   0  0  1  0  0  0  0  0  0  0  0  0
    0.8493   -2.0210   -1.2049 C   0  0  1  0  0  0  0  0  0  0  0  0
    1.5546   -2.5070   -2.4448 C   0  0  0  0  0  0  0  0  0  0  0  0
    0.8244   -2.8341   -3.5721 C   0  0  0  0  0  0  0  0  0  0  0  0
    1.4715   -3.2799   -4.7094 C   0  0  0  0  0  0  0  0  0  0  0  0
    2.8487   -3.3982   -4.7196 C   0  0  0  0  0  0  0  0  0  0  0  0
    3.5790   -3.0702   -3.5927 C   0  0  0  0  0  0  0  0  0  0  0  0
    2.9323   -2.6203   -2.4567 C   0  0  0  0  0  0  0  0  0  0  0  0
   -1.3723   -0.5112    0.0124 N   0  0  0  0  0  0  0  0  0  0  0  0
   -2.0286   -0.6552    1.1807 C   0  0  0  0  0  0  0  0  0  0  0  0
   -1.4814   -0.3650    2.2235 O   0  0  0  0  0  0  0  0  0  0  0  0
   -3.4424   -1.1768    1.1914 C   0  0  1  0  0  0  0  0  0  0  0  0
   -3.9291   -1.2403    2.5718 N   0  0  0  0  0  0  0  0  0  0  0  0
   -4.5122   -0.0513    3.1983 C   0  0  1  0  0  0  0  0  0  0  0  0
   -5.9955    0.0413    2.8347 C   0  0  1  0  0  0  0  0  0  0  0  0
   -6.5952    1.2644    3.4792 C   0  0  0  0  0  0  0  0  0  0  0  0
   -7.1430    1.1800    4.7456 C   0  0  0  0  0  0  0  0  0  0  0  0
   -7.6932    2.3020    5.3368 C   0  0  0  0  0  0  0  0  0  0  0  0
   -7.6952    3.5083    4.6618 C   0  0  0  0  0  0  0  0  0  0  0  0
   -7.1466    3.5928    3.3958 C   0  0  0  0  0  0  0  0  0  0  0  0
   -6.5926    2.4719    2.8063 C   0  0  0  0  0  0  0  0  0  0  0  0
   -3.8201   -2.6561    3.4239 S   0  0  1  0  0  0  0  0  0  0  0  0
   -4.9078   -2.6588    4.3383 O   0  0  0  0  0  0  0  0  0  0  0  0
   -3.6065   -3.6848    2.4671 O   0  0  0  0  0  0  0  0  0  0  0  0
   -2.3531   -2.5682    4.3959 C   0  0  0  0  0  0  0  0  0  0  0  0
   -1.1533   -3.0199    3.8790 C   0  0  0  0  0  0  0  0  0  0  0  0
   -0.0024   -2.9509    4.6416 C   0  0  0  0  0  0  0  0  0  0  0  0
   -0.0513   -2.4298    5.9210 C   0  0  0  0  0  0  0  0  0  0  0  0
   -1.2509   -1.9773    6.4377 C   0  0  0  0  0  0  0  0  0  0  0  0
   -2.4010   -2.0423    5.6735 C   0  0  0  0  0  0  0  0  0  0  0  0
    1.0039    1.9031    0.0027 H   0  0  0  0  0  0  0  0  0  0  0  0
   -0.5459    1.8868   -0.8726 H   0  0  0  0  0  0  0  0  0  0  0  0
   -0.5289    1.8773    0.9072 H   0  0  0  0  0  0  0  0  0  0  0  0
    0.1430   -0.2121   -2.1375 H   0  0  0  0  0  0  0  0  0  0  0  0
    1.7103   -0.0491   -1.3098 H   0  0  0  0  0  0  0  0  0  0  0  0
    1.4245   -2.3064   -0.3242 H   0  0  0  0  0  0  0  0  0  0  0  0
   -0.1428   -2.4694   -1.1520 H   0  0  0  0  0  0  0  0  0  0  0  0
   -0.2516   -2.7418   -3.5641 H   0  0  0  0  0  0  0  0  0  0  0  0
    0.9009   -3.5362   -5.5899 H   0  0  0  0  0  0  0  0  0  0  0  0
    3.3542   -3.7471   -5.6080 H   0  0  0  0  0  0  0  0  0  0  0  0
    4.6550   -3.1628   -3.6005 H   0  0  0  0  0  0  0  0  0  0  0  0
    3.5028   -2.3640   -1.5763 H   0  0  0  0  0  0  0  0  0  0  0  0
   -1.8100   -0.7432   -0.8215 H   0  0  0  0  0  0  0  0  0  0  0  0
   -4.0803   -0.5097    0.6116 H   0  0  0  0  0  0  0  0  0  0  0  0
   -3.4651   -2.1740    0.7520 H   0  0  0  0  0  0  0  0  0  0  0  0
   -4.4072   -0.1226    4.2809 H   0  0  0  0  0  0  0  0  0  0  0  0
   -3.9942    0.8387    2.8409 H   0  0  0  0  0  0  0  0  0  0  0  0
   -6.1004    0.1126    1.7521 H   0  0  0  0  0  0  0  0  0  0  0  0
   -6.5134   -0.8487    3.1921 H   0  0  0  0  0  0  0  0  0  0  0  0
   -7.1415    0.2376    5.2729 H   0  0  0  0  0  0  0  0  0  0  0  0
   -8.1218    2.2359    6.3259 H   0  0  0  0  0  0  0  0  0  0  0  0
   -8.1257    4.3847    5.1234 H   0  0  0  0  0  0  0  0  0  0  0  0
   -7.1484    4.5352    2.8683 H   0  0  0  0  0  0  0  0  0  0  0  0
   -6.1639    2.5379    1.8172 H   0  0  0  0  0  0  0  0  0  0  0  0
   -1.1152   -3.4270    2.8794 H   0  0  0  0  0  0  0  0  0  0  0  0
    0.9348   -3.3045    4.2379 H   0  0  0  0  0  0  0  0  0  0  0  0
    0.8478   -2.3766    6.5171 H   0  0  0  0  0  0  0  0  0  0  0  0
   -1.2891   -1.5704    7.4374 H   0  0  0  0  0  0  0  0  0  0  0  0
   -3.3383   -1.6887    6.0771 H   0  0  0  0  0  0  0  0  0  0  0  0
  1  2  1  0
  1 34  1  6
  1 35  1  0
  1 36  1  0
  2  3  1  1
  2  4  1  0
  2 12  1  0
  4  5  1  0
  4 37  1  6
  4 38  1  0
  5  6  1  0
  5 39  1  1
  5 40  1  0
  6 11  2  0
  6  7  1  0
  7  8  2  0
  7 41  1  0
  8  9  1  0
  8 42  1  0
  9 10  2  0
  9 43  1  0
 10 11  1  0
 10 44  1  0
 11 45  1  0
 12 13  1  0
 12 46  1  0
 13 14  2  0
 13 15  1  0
 15 16  1  0
 15 47  1  6
 15 48  1  0
 16 17  1  0
 25 16  1  6
 17 18  1  0
 17 49  1  1
 17 50  1  0
 18 19  1  0
 18 51  1  6
 18 52  1  0
 19 24  2  0
 19 20  1  0
 20 21  2  0
 20 53  1  0
 21 22  1  0
 21 54  1  0
 22 23  2  0
 22 55  1  0
 23 24  1  0
 23 56  1  0
 24 57  1  0
 25 26  2  0
 25 27  2  0
 25 28  1  0
 28 33  2  0
 28 29  1  0
 29 30  2  0
 29 58  1  0
 30 31  1  0
 30 59  1  0
 31 32  2  0
 31 60  1  0
 32 33  1  0
 32 61  1  0
 33 62  1  0
M  END
$$$$
