ZINC000024686440
     RDKit          3D

 40 41  0  0  1  0  0  0  0  0999 V2000
   -0.2459    0.8452   -1.1699 C   0  0  1  0  0  0  0  0  0  0  0  0
   -0.4715   -0.6013   -1.1149 N   0  0  0  0  0  0  0  0  0  0  0  0
   -1.0284   -1.1553   -0.0197 C   0  0  0  0  0  0  0  0  0  0  0  0
   -1.3429   -0.4563    0.9202 O   0  0  0  0  0  0  0  0  0  0  0  0
   -1.2604   -2.6432    0.0369 C   0  0  1  0  0  0  0  0  0  0  0  0
   -0.8979   -3.1048   -0.8816 H   0  0  0  0  0  0  0  0  0  0  0  0
   -0.5146   -3.2339    1.2376 C   0  0  1  0  0  0  0  0  0  0  0  0
   -0.8652   -4.7176    1.3712 C   0  0  1  0  0  0  0  0  0  0  0  0
   -2.3686   -4.8683    1.6147 C   0  0  1  0  0  0  0  0  0  0  0  0
   -3.1354   -4.2961    0.4183 C   0  0  1  0  0  0  0  0  0  0  0  0
   -2.6967   -2.9123    0.1898 N   0  0  0  0  0  0  0  0  0  0  0  0
   -3.7996   -1.6794    0.1123 S   0  0  1  0  0  0  0  0  0  0  0  0
   -3.1852   -0.6376   -0.6336 O   0  0  0  0  0  0  0  0  0  0  0  0
   -5.0382   -2.2715   -0.2543 O   0  0  0  0  0  0  0  0  0  0  0  0
   -4.0083   -1.0627    1.7496 C   0  0  0  0  0  0  0  0  0  0  0  0
   -4.7347   -1.7892    2.6745 C   0  0  0  0  0  0  0  0  0  0  0  0
   -4.8984   -1.3054    3.9590 C   0  0  0  0  0  0  0  0  0  0  0  0
   -4.3353   -0.0952    4.3188 C   0  0  0  0  0  0  0  0  0  0  0  0
   -4.5142    0.4325    5.7190 C   0  0  1  0  0  0  0  0  0  0  0  0
   -3.4696   -0.0277    6.5278 F   0  0  0  0  0  0  0  0  0  0  0  0
   -4.5041    1.8313    5.6950 F   0  0  0  0  0  0  0  0  0  0  0  0
   -5.7351   -0.0162    6.2340 F   0  0  0  0  0  0  0  0  0  0  0  0
   -3.6078    0.6307    3.3943 C   0  0  0  0  0  0  0  0  0  0  0  0
   -3.4409    0.1450    2.1109 C   0  0  0  0  0  0  0  0  0  0  0  0
    0.2090    1.1059   -2.1255 H   0  0  0  0  0  0  0  0  0  0  0  0
   -1.1981    1.3656   -1.0669 H   0  0  0  0  0  0  0  0  0  0  0  0
    0.4191    1.1404   -0.3583 H   0  0  0  0  0  0  0  0  0  0  0  0
   -0.2200   -1.1603   -1.8666 H   0  0  0  0  0  0  0  0  0  0  0  0
    0.5597   -3.1260    1.0875 H   0  0  0  0  0  0  0  0  0  0  0  0
   -0.8104   -2.7070    2.1448 H   0  0  0  0  0  0  0  0  0  0  0  0
   -0.5917   -5.2394    0.4541 H   0  0  0  0  0  0  0  0  0  0  0  0
   -0.3167   -5.1462    2.2100 H   0  0  0  0  0  0  0  0  0  0  0  0
   -2.6139   -5.9237    1.7330 H   0  0  0  0  0  0  0  0  0  0  0  0
   -2.6469   -4.3261    2.5183 H   0  0  0  0  0  0  0  0  0  0  0  0
   -2.9276   -4.8943   -0.4689 H   0  0  0  0  0  0  0  0  0  0  0  0
   -4.2048   -4.3106    0.6290 H   0  0  0  0  0  0  0  0  0  0  0  0
   -5.1746   -2.7347    2.3935 H   0  0  0  0  0  0  0  0  0  0  0  0
   -5.4665   -1.8726    4.6814 H   0  0  0  0  0  0  0  0  0  0  0  0
   -3.1676    1.5759    3.6755 H   0  0  0  0  0  0  0  0  0  0  0  0
   -2.8724    0.7121    1.3886 H   0  0  0  0  0  0  0  0  0  0  0  0
  1  2  1  0
  1 25  1  6
  1 26  1  0
  1 27  1  0
  2  3  1  0
  2 28  1  0
  3  4  2  0
  3  5  1  0
  5  6  1  6
  5 11  1  0
  5  7  1  0
  7  8  1  0
  7 29  1  6
  7 30  1  0
  8  9  1  0
  8 31  1  6
  8 32  1  0
  9 10  1  0
  9 33  1  1
  9 34  1  0
 10 11  1  0
 10 35  1  6
 10 36  1  0
 12 11  1  1
 12 13  2  0
 12 14  2  0
 12 15  1  0
 15 24  2  0
 15 16  1  0
 16 17  2  0
 16 37  1  0
 17 18  1  0
 17 38  1  0
 18 19  1  0
 18 23  2  0
 19 20  1  1
 19 21  1  0
 19 22  1  0
 23 24  1  0
 23 39  1  0
 24 40  1  0
M  END
$$$$
