ZINC000408919713
     RDKit          3D

 52 54  0  0  0  0  0  0  0  0999 V2000
    1.0261   -5.8997  -10.0417 C   0  0  1  0  0  0  0  0  0  0  0  0
    1.5296   -4.5675   -9.9243 O   0  0  0  0  0  0  0  0  0  0  0  0
    1.7785   -4.1101   -8.6680 C   0  0  0  0  0  0  0  0  0  0  0  0
    1.5488   -4.9275   -7.5734 C   0  0  0  0  0  0  0  0  0  0  0  0
    1.8029   -4.4610   -6.2967 C   0  0  0  0  0  0  0  0  0  0  0  0
    2.2856   -3.1796   -6.1092 C   0  0  0  0  0  0  0  0  0  0  0  0
    2.6068   -2.5909   -4.4798 S   0  0  1  0  0  0  0  0  0  0  0  0
    2.5221   -1.1738   -4.5412 O   0  0  0  0  0  0  0  0  0  0  0  0
    1.8128   -3.3798   -3.6043 O   0  0  0  0  0  0  0  0  0  0  0  0
    4.1853   -2.9504   -4.1310 N   0  0  0  0  0  0  0  0  0  0  0  0
    4.5399   -4.2799   -3.6281 C   0  0  1  0  0  0  0  0  0  0  0  0
    4.9711   -5.1533   -4.7780 C   0  0  0  0  0  0  0  0  0  0  0  0
    4.9812   -4.7090   -5.9064 O   0  0  0  0  0  0  0  0  0  0  0  0
    5.3455   -6.4283   -4.5524 N   0  0  0  0  0  0  0  0  0  0  0  0
    5.7647   -7.2773   -5.6702 C   0  0  1  0  0  0  0  0  0  0  0  0
    7.0049   -8.1502   -5.4680 C   0  0  1  0  0  0  0  0  0  0  0  0
    5.6159   -8.7908   -5.5023 C   0  0  1  0  0  0  0  0  0  0  0  0
    5.2271   -1.9389   -4.3253 C   0  0  1  0  0  0  0  0  0  0  0  0
    5.4921   -1.2336   -3.0201 C   0  0  0  0  0  0  0  0  0  0  0  0
    4.8523   -0.0415   -2.7364 C   0  0  0  0  0  0  0  0  0  0  0  0
    5.0954    0.6054   -1.5392 C   0  0  0  0  0  0  0  0  0  0  0  0
    5.9779    0.0601   -0.6256 C   0  0  0  0  0  0  0  0  0  0  0  0
    6.6170   -1.1325   -0.9090 C   0  0  0  0  0  0  0  0  0  0  0  0
    6.3706   -1.7816   -2.1043 C   0  0  0  0  0  0  0  0  0  0  0  0
    2.5176   -2.3587   -7.1975 C   0  0  0  0  0  0  0  0  0  0  0  0
    2.2701   -2.8216   -8.4795 C   0  0  0  0  0  0  0  0  0  0  0  0
    2.4977   -2.0155   -9.5509 O   0  0  0  0  0  0  0  0  0  0  0  0
    2.9924   -0.7023   -9.2812 C   0  0  1  0  0  0  0  0  0  0  0  0
    1.7440   -6.5986   -9.6125 H   0  0  0  0  0  0  0  0  0  0  0  0
    0.0788   -5.9785   -9.5083 H   0  0  0  0  0  0  0  0  0  0  0  0
    0.8715   -6.1382  -11.0940 H   0  0  0  0  0  0  0  0  0  0  0  0
    1.1709   -5.9290   -7.7172 H   0  0  0  0  0  0  0  0  0  0  0  0
    1.6233   -5.0993   -5.4442 H   0  0  0  0  0  0  0  0  0  0  0  0
    5.3573   -4.1916   -2.9125 H   0  0  0  0  0  0  0  0  0  0  0  0
    3.6744   -4.7257   -3.1379 H   0  0  0  0  0  0  0  0  0  0  0  0
    5.3374   -6.7836   -3.6499 H   0  0  0  0  0  0  0  0  0  0  0  0
    5.5975   -6.8624   -6.6642 H   0  0  0  0  0  0  0  0  0  0  0  0
    7.6540   -8.3096   -6.3290 H   0  0  0  0  0  0  0  0  0  0  0  0
    7.5089   -8.0927   -4.5032 H   0  0  0  0  0  0  0  0  0  0  0  0
    5.2061   -9.1547   -4.5601 H   0  0  0  0  0  0  0  0  0  0  0  0
    5.3512   -9.3716   -6.3858 H   0  0  0  0  0  0  0  0  0  0  0  0
    6.1418   -2.4210   -4.6700 H   0  0  0  0  0  0  0  0  0  0  0  0
    4.8957   -1.2143   -5.0691 H   0  0  0  0  0  0  0  0  0  0  0  0
    4.1628    0.3846   -3.4501 H   0  0  0  0  0  0  0  0  0  0  0  0
    4.5961    1.5372   -1.3178 H   0  0  0  0  0  0  0  0  0  0  0  0
    6.1683    0.5659    0.3095 H   0  0  0  0  0  0  0  0  0  0  0  0
    7.3067   -1.5584   -0.1953 H   0  0  0  0  0  0  0  0  0  0  0  0
    6.8699   -2.7133   -2.3257 H   0  0  0  0  0  0  0  0  0  0  0  0
    2.8948   -1.3578   -7.0483 H   0  0  0  0  0  0  0  0  0  0  0  0
    3.9472   -0.7736   -8.7603 H   0  0  0  0  0  0  0  0  0  0  0  0
    3.1299   -0.1660  -10.2201 H   0  0  0  0  0  0  0  0  0  0  0  0
    2.2775   -0.1656   -8.6576 H   0  0  0  0  0  0  0  0  0  0  0  0
  1  2  1  0
  1 29  1  1
  1 30  1  0
  1 31  1  0
  2  3  1  0
  3 26  2  0
  3  4  1  0
  4  5  2  0
  4 32  1  0
  5  6  1  0
  5 33  1  0
  6  7  1  0
  6 25  2  0
  7  8  2  0
  7  9  2  0
  7 10  1  1
 10 11  1  0
 10 18  1  0
 11 12  1  0
 11 34  1  1
 11 35  1  0
 12 13  2  0
 12 14  1  0
 14 15  1  0
 14 36  1  0
 15 17  1  0
 15 16  1  0
 15 37  1  6
 16 17  1  0
 16 38  1  6
 16 39  1  0
 17 40  1  1
 17 41  1  0
 18 19  1  0
 18 42  1  6
 18 43  1  0
 19 24  2  0
 19 20  1  0
 20 21  2  0
 20 44  1  0
 21 22  1  0
 21 45  1  0
 22 23  2  0
 22 46  1  0
 23 24  1  0
 23 47  1  0
 24 48  1  0
 25 26  1  0
 25 49  1  0
 26 27  1  0
 27 28  1  0
 28 50  1  1
 28 51  1  0
 28 52  1  0
M  END
$$$$
