ZINC000014099802
     RDKit          3D

 53 55  0  0  0  0  0  0  0  0999 V2000
    0.0021   -0.0041    0.0020 O   0  0  0  0  0  0  0  0  0  0  0  0
   -0.0172    1.4168    0.0098 S   0  0  1  0  0  0  0  0  0  0  0  0
    1.1617    2.2101    0.0028 O   0  0  0  0  0  0  0  0  0  0  0  0
   -0.9567    1.9094   -1.3970 C   0  0  0  0  0  0  0  0  0  0  0  0
   -1.8848    1.0442   -1.9458 C   0  0  0  0  0  0  0  0  0  0  0  0
   -2.6219    1.4307   -3.0496 C   0  0  0  0  0  0  0  0  0  0  0  0
   -2.4313    2.6825   -3.6042 C   0  0  0  0  0  0  0  0  0  0  0  0
   -3.2345    3.1036   -4.8078 C   0  0  1  0  0  0  0  0  0  0  0  0
   -4.4138    3.7273   -4.3864 F   0  0  0  0  0  0  0  0  0  0  0  0
   -2.4843    3.9973   -5.5796 F   0  0  0  0  0  0  0  0  0  0  0  0
   -3.5510    1.9771   -5.5746 F   0  0  0  0  0  0  0  0  0  0  0  0
   -1.5042    3.5481   -3.0546 C   0  0  0  0  0  0  0  0  0  0  0  0
   -0.7699    3.1631   -1.9485 C   0  0  0  0  0  0  0  0  0  0  0  0
   -0.8748    1.8654    1.3536 N   0  0  0  0  0  0  0  0  0  0  0  0
   -0.6796    3.1911    1.9573 C   0  0  1  0  0  0  0  0  0  0  0  0
   -2.0388    3.8966    2.0404 C   0  0  1  0  0  0  0  0  0  0  0  0
   -3.0091    2.9765    2.6503 N   0  0  0  0  0  0  0  0  0  0  0  0
   -3.8674    3.4255    3.9934 S   0  0  1  0  0  0  0  0  0  0  0  0
   -4.2585    2.2224    4.6404 O   0  0  0  0  0  0  0  0  0  0  0  0
   -3.1076    4.4411    4.6341 O   0  0  0  0  0  0  0  0  0  0  0  0
   -5.2614    4.1471    3.4656 N   0  0  0  0  0  0  0  0  0  0  0  0
   -5.2589    5.5745    3.2360 C   0  0  1  0  0  0  0  0  0  0  0  0
   -5.6482    6.3114    4.5412 C   0  0  1  0  0  0  0  0  0  0  0  0
   -7.0758    6.1120    4.8342 C   0  0  1  0  0  0  0  0  0  0  0  0
   -7.4681    4.6598    5.0889 C   0  0  1  0  0  0  0  0  0  0  0  0
   -7.7391    3.9763    3.7714 C   0  0  1  0  0  0  0  0  0  0  0  0
   -6.4535    3.3055    3.2434 C   0  0  1  0  0  0  0  0  0  0  0  0
   -3.2042    1.6508    2.0465 C   0  0  1  0  0  0  0  0  0  0  0  0
   -1.8490    0.9474    1.9601 C   0  0  1  0  0  0  0  0  0  0  0  0
   -2.0336    0.0662   -1.5125 H   0  0  0  0  0  0  0  0  0  0  0  0
   -3.3464    0.7545   -3.4788 H   0  0  0  0  0  0  0  0  0  0  0  0
   -1.3556    4.5263   -3.4877 H   0  0  0  0  0  0  0  0  0  0  0  0
   -0.0456    3.8394   -1.5191 H   0  0  0  0  0  0  0  0  0  0  0  0
   -0.2636    3.0794    2.9586 H   0  0  0  0  0  0  0  0  0  0  0  0
    0.0000    3.7780    1.3395 H   0  0  0  0  0  0  0  0  0  0  0  0
   -1.9489    4.7928    2.6543 H   0  0  0  0  0  0  0  0  0  0  0  0
   -2.3719    4.1682    1.0387 H   0  0  0  0  0  0  0  0  0  0  0  0
   -4.2633    5.8902    2.9241 H   0  0  0  0  0  0  0  0  0  0  0  0
   -5.9780    5.8176    2.4537 H   0  0  0  0  0  0  0  0  0  0  0  0
   -5.0526    5.9218    5.3668 H   0  0  0  0  0  0  0  0  0  0  0  0
   -5.4487    7.3769    4.4273 H   0  0  0  0  0  0  0  0  0  0  0  0
   -7.3337    6.6998    5.7151 H   0  0  0  0  0  0  0  0  0  0  0  0
   -7.6574    6.4848    3.9911 H   0  0  0  0  0  0  0  0  0  0  0  0
   -6.6547    4.1482    5.6035 H   0  0  0  0  0  0  0  0  0  0  0  0
   -8.3660    4.6286    5.7062 H   0  0  0  0  0  0  0  0  0  0  0  0
   -8.5114    3.2196    3.9088 H   0  0  0  0  0  0  0  0  0  0  0  0
   -8.0830    4.7135    3.0458 H   0  0  0  0  0  0  0  0  0  0  0  0
   -6.5661    3.1155    2.1760 H   0  0  0  0  0  0  0  0  0  0  0  0
   -6.3136    2.3547    3.7576 H   0  0  0  0  0  0  0  0  0  0  0  0
   -3.8838    1.0639    2.6644 H   0  0  0  0  0  0  0  0  0  0  0  0
   -3.6202    1.7625    1.0453 H   0  0  0  0  0  0  0  0  0  0  0  0
   -1.9405    0.0514    1.3461 H   0  0  0  0  0  0  0  0  0  0  0  0
   -1.5136    0.6754    2.9609 H   0  0  0  0  0  0  0  0  0  0  0  0
  1  2  2  0
  2  3  2  0
  2  4  1  0
  2 14  1  1
  4 13  2  0
  4  5  1  0
  5  6  2  0
  5 30  1  0
  6  7  1  0
  6 31  1  0
  7  8  1  0
  7 12  2  0
  8  9  1  1
  8 10  1  0
  8 11  1  0
 12 13  1  0
 12 32  1  0
 13 33  1  0
 14 29  1  0
 14 15  1  0
 15 16  1  0
 15 34  1  1
 15 35  1  0
 16 17  1  0
 16 36  1  1
 16 37  1  0
 18 17  1  6
 17 28  1  0
 18 19  2  0
 18 20  2  0
 18 21  1  0
 21 27  1  0
 21 22  1  0
 22 23  1  0
 22 38  1  6
 22 39  1  0
 23 24  1  0
 23 40  1  1
 23 41  1  0
 24 25  1  0
 24 42  1  1
 24 43  1  0
 25 26  1  0
 25 44  1  1
 25 45  1  0
 26 27  1  0
 26 46  1  1
 26 47  1  0
 27 48  1  6
 27 49  1  0
 28 29  1  0
 28 50  1  1
 28 51  1  0
 29 52  1  6
 29 53  1  0
M  END
$$$$
