ZINC000065363930
     RDKit          3D

 49 50  0  0  1  0  0  0  0  0999 V2000
   -0.5841    1.0608    0.3003 C   0  0  1  0  0  0  0  0  0  0  0  0
   -0.1441   -0.3746    0.0058 C   0  0  2  0  0  0  0  0  0  0  0  0
    0.3165   -0.4182   -0.9811 H   0  0  0  0  0  0  0  0  0  0  0  0
   -1.3444   -1.2851    0.0406 C   0  0  0  0  0  0  0  0  0  0  0  0
   -1.5637   -1.9621    1.0226 O   0  0  0  0  0  0  0  0  0  0  0  0
   -2.1742   -1.3470   -1.0196 N   0  0  0  0  0  0  0  0  0  0  0  0
   -1.9767   -0.4736   -2.1868 C   0  0  1  0  0  0  0  0  0  0  0  0
   -1.9927   -1.3403   -3.4503 C   0  0  1  0  0  0  0  0  0  0  0  0
   -3.2308   -2.1289   -3.4861 N   0  0  1  0  0  0  0  0  0  0  0  0
   -4.0247   -1.5094   -3.4225 H   0  0  0  0  0  0  0  0  0  0  0  0
   -3.2960   -2.8776   -4.7483 C   0  0  1  0  0  0  0  0  0  0  0  0
   -3.2562   -3.0713   -2.3603 C   0  0  1  0  0  0  0  0  0  0  0  0
   -3.2995   -2.2943   -1.0452 C   0  0  1  0  0  0  0  0  0  0  0  0
    0.8251   -0.8054    1.0165 N   0  0  0  0  0  0  0  0  0  0  0  0
    0.4541   -0.8580    2.3620 C   0  0  0  0  0  0  0  0  0  0  0  0
    0.3733   -2.0815    3.0144 C   0  0  0  0  0  0  0  0  0  0  0  0
    0.0066   -2.1299    4.3452 C   0  0  0  0  0  0  0  0  0  0  0  0
   -0.2798   -0.9622    5.0279 C   0  0  0  0  0  0  0  0  0  0  0  0
   -0.2007    0.2578    4.3812 C   0  0  0  0  0  0  0  0  0  0  0  0
   -0.5137    1.5279    5.1294 C   0  0  1  0  0  0  0  0  0  0  0  0
   -0.8556    1.2189    6.4503 F   0  0  0  0  0  0  0  0  0  0  0  0
    0.6090    2.3626    5.1214 F   0  0  0  0  0  0  0  0  0  0  0  0
   -1.5851    2.1814    4.5111 F   0  0  0  0  0  0  0  0  0  0  0  0
    0.1708    0.3138    3.0525 C   0  0  0  0  0  0  0  0  0  0  0  0
    2.3603   -1.2299    0.5636 S   0  0  1  0  0  0  0  0  0  0  0  0
    3.3263    0.2935    0.7550 C   0  0  1  0  0  0  0  0  0  0  0  0
    2.7558   -2.1956    1.5281 O   0  0  0  0  0  0  0  0  0  0  0  0
    2.2381   -1.5737   -0.8098 O   0  0  0  0  0  0  0  0  0  0  0  0
   -1.1506    1.0834    1.2312 H   0  0  0  0  0  0  0  0  0  0  0  0
    0.2951    1.6983    0.3945 H   0  0  0  0  0  0  0  0  0  0  0  0
   -1.2102    1.4234   -0.5149 H   0  0  0  0  0  0  0  0  0  0  0  0
   -2.7814    0.2600   -2.2356 H   0  0  0  0  0  0  0  0  0  0  0  0
   -1.0168    0.0362   -2.1045 H   0  0  0  0  0  0  0  0  0  0  0  0
   -1.9441   -0.6998   -4.3309 H   0  0  0  0  0  0  0  0  0  0  0  0
   -1.1342   -2.0118   -3.4413 H   0  0  0  0  0  0  0  0  0  0  0  0
   -2.4372   -3.5449   -4.8197 H   0  0  0  0  0  0  0  0  0  0  0  0
   -4.2147   -3.4635   -4.7762 H   0  0  0  0  0  0  0  0  0  0  0  0
   -3.2845   -2.1798   -5.5856 H   0  0  0  0  0  0  0  0  0  0  0  0
   -4.1387   -3.7063   -2.4378 H   0  0  0  0  0  0  0  0  0  0  0  0
   -2.3594   -3.6904   -2.3843 H   0  0  0  0  0  0  0  0  0  0  0  0
   -3.2163   -2.9869   -0.2077 H   0  0  0  0  0  0  0  0  0  0  0  0
   -4.2370   -1.7427   -0.9763 H   0  0  0  0  0  0  0  0  0  0  0  0
    0.5965   -2.9940    2.4816 H   0  0  0  0  0  0  0  0  0  0  0  0
   -0.0568   -3.0810    4.8530 H   0  0  0  0  0  0  0  0  0  0  0  0
   -0.5662   -1.0029    6.0684 H   0  0  0  0  0  0  0  0  0  0  0  0
    0.2324    1.2668    2.5481 H   0  0  0  0  0  0  0  0  0  0  0  0
    3.4091    0.5406    1.8134 H   0  0  0  0  0  0  0  0  0  0  0  0
    4.3223    0.1471    0.3371 H   0  0  0  0  0  0  0  0  0  0  0  0
    2.8280    1.1081    0.2295 H   0  0  0  0  0  0  0  0  0  0  0  0
  1  2  1  0
  1 29  1  1
  1 30  1  0
  1 31  1  0
  2  3  1  6
  2  4  1  0
  2 14  1  0
  4  5  2  0
  4  6  1  0
  6 13  1  0
  6  7  1  0
  7  8  1  0
  7 32  1  6
  7 33  1  0
  8  9  1  0
  8 34  1  6
  8 35  1  0
  9 10  1  1
  9 11  1  0
  9 12  1  0
 11 36  1  6
 11 37  1  0
 11 38  1  0
 12 13  1  0
 12 39  1  6
 12 40  1  0
 13 41  1  1
 13 42  1  0
 14 15  1  0
 25 14  1  1
 15 24  2  0
 15 16  1  0
 16 17  2  0
 16 43  1  0
 17 18  1  0
 17 44  1  0
 18 19  2  0
 18 45  1  0
 19 20  1  0
 19 24  1  0
 20 21  1  1
 20 22  1  0
 20 23  1  0
 24 46  1  0
 25 26  1  0
 25 27  2  0
 25 28  2  0
 26 47  1  1
 26 48  1  0
 26 49  1  0
M  CHG  1   9   1
M  END
$$$$
