ZINC000045944822
     RDKit          3D

 58 59  0  0  0  0  0  0  0  0999 V2000
   -0.0187    1.5258    0.0104 C   0  0  1  0  0  0  0  0  0  0  0  0
    0.0021   -0.0041    0.0020 C   0  0  1  0  0  0  0  0  0  0  0  0
   -1.4117   -0.5257    0.0127 C   0  0  0  0  0  0  0  0  0  0  0  0
   -2.0507   -0.7660    1.2147 C   0  0  0  0  0  0  0  0  0  0  0  0
   -3.3476   -1.2445    1.2246 C   0  0  0  0  0  0  0  0  0  0  0  0
   -4.0056   -1.4822    0.0324 C   0  0  0  0  0  0  0  0  0  0  0  0
   -5.6584   -2.0926    0.0449 S   0  0  1  0  0  0  0  0  0  0  0  0
   -5.8564   -2.7406   -1.2042 O   0  0  0  0  0  0  0  0  0  0  0  0
   -5.8361   -2.7442    1.2951 O   0  0  0  0  0  0  0  0  0  0  0  0
   -6.6662   -0.7786    0.0549 N   0  0  0  0  0  0  0  0  0  0  0  0
   -7.1223   -0.1956   -1.2093 C   0  0  1  0  0  0  0  0  0  0  0  0
   -8.4870   -0.7809   -1.5779 C   0  0  1  0  0  0  0  0  0  0  0  0
   -8.9633   -0.1720   -2.8983 C   0  0  1  0  0  0  0  0  0  0  0  0
  -10.2379   -0.7186   -3.2425 O   0  0  0  0  0  0  0  0  0  0  0  0
  -10.7757   -0.2133   -4.4663 C   0  0  1  0  0  0  0  0  0  0  0  0
   -7.1017   -0.1992    1.3281 C   0  0  1  0  0  0  0  0  0  0  0  0
   -6.1799    0.9635    1.7011 C   0  0  1  0  0  0  0  0  0  0  0  0
   -6.6279    1.5595    3.0107 C   0  0  0  0  0  0  0  0  0  0  0  0
   -7.5897    1.0996    3.5888 O   0  0  0  0  0  0  0  0  0  0  0  0
   -5.9596    2.6037    3.5395 N   0  0  0  0  0  0  0  0  0  0  0  0
   -4.7944    3.1805    2.8520 C   0  0  1  0  0  0  0  0  0  0  0  0
   -3.6333    3.2641    3.8486 C   0  0  1  0  0  0  0  0  0  0  0  0
   -4.0717    3.9932    5.0462 N   0  0  0  0  0  0  0  0  0  0  0  0
   -5.1529    3.2794    5.7386 C   0  0  1  0  0  0  0  0  0  0  0  0
   -6.3800    3.2004    4.8165 C   0  0  1  0  0  0  0  0  0  0  0  0
   -3.3671   -1.2406   -1.1697 C   0  0  0  0  0  0  0  0  0  0  0  0
   -2.0716   -0.7585   -1.1795 C   0  0  0  0  0  0  0  0  0  0  0  0
    1.0039    1.9031    0.0027 H   0  0  0  0  0  0  0  0  0  0  0  0
   -0.5459    1.8868   -0.8726 H   0  0  0  0  0  0  0  0  0  0  0  0
   -0.5289    1.8773    0.9072 H   0  0  0  0  0  0  0  0  0  0  0  0
    0.5123   -0.3556   -0.8948 H   0  0  0  0  0  0  0  0  0  0  0  0
    0.5293   -0.3651    0.8851 H   0  0  0  0  0  0  0  0  0  0  0  0
   -1.5366   -0.5803    2.1462 H   0  0  0  0  0  0  0  0  0  0  0  0
   -3.8465   -1.4329    2.1637 H   0  0  0  0  0  0  0  0  0  0  0  0
   -7.2079    0.8856   -1.1008 H   0  0  0  0  0  0  0  0  0  0  0  0
   -6.4037   -0.4260   -1.9958 H   0  0  0  0  0  0  0  0  0  0  0  0
   -8.4014   -1.8621   -1.6864 H   0  0  0  0  0  0  0  0  0  0  0  0
   -9.2056   -0.5504   -0.7914 H   0  0  0  0  0  0  0  0  0  0  0  0
   -9.0490    0.9092   -2.7898 H   0  0  0  0  0  0  0  0  0  0  0  0
   -8.2447   -0.4024   -3.6848 H   0  0  0  0  0  0  0  0  0  0  0  0
  -11.7437   -0.6770   -4.6566 H   0  0  0  0  0  0  0  0  0  0  0  0
  -10.8990    0.8670   -4.3903 H   0  0  0  0  0  0  0  0  0  0  0  0
  -10.0947   -0.4446   -5.2853 H   0  0  0  0  0  0  0  0  0  0  0  0
   -8.1245    0.1648    1.2306 H   0  0  0  0  0  0  0  0  0  0  0  0
   -7.0597   -0.9605    2.1070 H   0  0  0  0  0  0  0  0  0  0  0  0
   -5.1571    0.5995    1.7985 H   0  0  0  0  0  0  0  0  0  0  0  0
   -6.2219    1.7248    0.9221 H   0  0  0  0  0  0  0  0  0  0  0  0
   -4.5120    2.5441    2.0134 H   0  0  0  0  0  0  0  0  0  0  0  0
   -5.0396    4.1793    2.4910 H   0  0  0  0  0  0  0  0  0  0  0  0
   -3.3216    2.2580    4.1291 H   0  0  0  0  0  0  0  0  0  0  0  0
   -2.7964    3.7897    3.3888 H   0  0  0  0  0  0  0  0  0  0  0  0
   -3.2963    4.1662    5.6683 H   0  0  0  0  0  0  0  0  0  0  0  0
   -4.8200    2.2731    5.9928 H   0  0  0  0  0  0  0  0  0  0  0  0
   -5.4181    3.8161    6.6495 H   0  0  0  0  0  0  0  0  0  0  0  0
   -6.7756    4.2018    4.6468 H   0  0  0  0  0  0  0  0  0  0  0  0
   -7.1445    2.5747    5.2771 H   0  0  0  0  0  0  0  0  0  0  0  0
   -3.8814   -1.4260   -2.1011 H   0  0  0  0  0  0  0  0  0  0  0  0
   -1.5728   -0.5697   -2.1186 H   0  0  0  0  0  0  0  0  0  0  0  0
  1  2  1  0
  1 28  1  6
  1 29  1  0
  1 30  1  0
  2  3  1  0
  2 31  1  6
  2 32  1  0
  3 27  2  0
  3  4  1  0
  4  5  2  0
  4 33  1  0
  5  6  1  0
  5 34  1  0
  6  7  1  0
  6 26  2  0
  7  8  2  0
  7  9  2  0
  7 10  1  1
 10 11  1  0
 10 16  1  0
 11 12  1  0
 11 35  1  1
 11 36  1  0
 12 13  1  0
 12 37  1  6
 12 38  1  0
 13 14  1  0
 13 39  1  1
 13 40  1  0
 14 15  1  0
 15 41  1  6
 15 42  1  0
 15 43  1  0
 16 17  1  0
 16 44  1  6
 16 45  1  0
 17 18  1  0
 17 46  1  1
 17 47  1  0
 18 19  2  0
 18 20  1  0
 20 25  1  0
 20 21  1  0
 21 22  1  0
 21 48  1  6
 21 49  1  0
 22 23  1  0
 22 50  1  1
 22 51  1  0
 23 24  1  0
 23 52  1  0
 24 25  1  0
 24 53  1  1
 24 54  1  0
 25 55  1  6
 25 56  1  0
 26 27  1  0
 26 57  1  0
 27 58  1  0
M  END
$$$$
