ZINC000267822486
     RDKit          3D

 34 35  0  0  1  0  0  0  0  0999 V2000
   -0.0173    1.4248    0.0099 C   0  0  1  0  0  0  0  0  0  0  0  0
    0.0021   -0.0041    0.0020 O   0  0  0  0  0  0  0  0  0  0  0  0
    0.6518   -0.5703   -1.1379 C   0  0  1  0  0  0  0  0  0  0  0  0
    0.5588    0.0896   -2.0004 H   0  0  0  0  0  0  0  0  0  0  0  0
    2.1439   -0.8639   -0.8297 C   0  0  1  0  0  0  0  0  0  0  0  0
    2.4455   -2.0151   -1.8214 C   0  0  1  0  0  0  0  0  0  0  0  0
    1.2120   -2.8220   -1.8494 N   0  0  0  0  0  0  0  0  0  0  0  0
    1.1154   -4.4235   -2.2596 S   0  0  1  0  0  0  0  0  0  0  0  0
   -0.2212   -4.6485   -2.6864 O   0  0  0  0  0  0  0  0  0  0  0  0
    2.2477   -4.6984   -3.0729 O   0  0  0  0  0  0  0  0  0  0  0  0
    1.3284   -5.3548   -0.7791 C   0  0  0  0  0  0  0  0  0  0  0  0
    2.5950   -5.7392   -0.3805 C   0  0  0  0  0  0  0  0  0  0  0  0
    2.7620   -6.4699    0.7810 C   0  0  0  0  0  0  0  0  0  0  0  0
    1.6626   -6.8158    1.5442 C   0  0  0  0  0  0  0  0  0  0  0  0
    1.8447   -7.6128    2.8101 C   0  0  1  0  0  0  0  0  0  0  0  0
    2.0256   -6.7401    3.8886 F   0  0  0  0  0  0  0  0  0  0  0  0
    0.7100   -8.4003    3.0327 F   0  0  0  0  0  0  0  0  0  0  0  0
    2.9675   -8.4377    2.6844 F   0  0  0  0  0  0  0  0  0  0  0  0
    0.3961   -6.4302    1.1463 C   0  0  0  0  0  0  0  0  0  0  0  0
    0.2294   -5.6963   -0.0132 C   0  0  0  0  0  0  0  0  0  0  0  0
    0.0786   -1.9675   -1.4550 C   0  0  1  0  0  0  0  0  0  0  0  0
    1.0053    1.8021    0.0021 H   0  0  0  0  0  0  0  0  0  0  0  0
   -0.5445    1.7859   -0.8732 H   0  0  0  0  0  0  0  0  0  0  0  0
   -0.5275    1.7763    0.9067 H   0  0  0  0  0  0  0  0  0  0  0  0
    2.7650    0.0065   -1.0409 H   0  0  0  0  0  0  0  0  0  0  0  0
    2.2725   -1.1928    0.2015 H   0  0  0  0  0  0  0  0  0  0  0  0
    2.6601   -1.6156   -2.8126 H   0  0  0  0  0  0  0  0  0  0  0  0
    3.2827   -2.6144   -1.4636 H   0  0  0  0  0  0  0  0  0  0  0  0
    3.4540   -5.4690   -0.9767 H   0  0  0  0  0  0  0  0  0  0  0  0
    3.7515   -6.7708    1.0920 H   0  0  0  0  0  0  0  0  0  0  0  0
   -0.4629   -6.7001    1.7427 H   0  0  0  0  0  0  0  0  0  0  0  0
   -0.7601   -5.3950   -0.3240 H   0  0  0  0  0  0  0  0  0  0  0  0
   -0.4039   -2.3779   -0.5679 H   0  0  0  0  0  0  0  0  0  0  0  0
   -0.6388   -1.9024   -2.2731 H   0  0  0  0  0  0  0  0  0  0  0  0
  1  2  1  0
  1 22  1  6
  1 23  1  0
  1 24  1  0
  2  3  1  0
  3  4  1  6
  3 21  1  0
  3  5  1  0
  5  6  1  0
  5 25  1  6
  5 26  1  0
  6  7  1  0
  6 27  1  6
  6 28  1  0
  8  7  1  1
  7 21  1  0
  8  9  2  0
  8 10  2  0
  8 11  1  0
 11 20  2  0
 11 12  1  0
 12 13  2  0
 12 29  1  0
 13 14  1  0
 13 30  1  0
 14 15  1  0
 14 19  2  0
 15 16  1  1
 15 17  1  0
 15 18  1  0
 19 20  1  0
 19 31  1  0
 20 32  1  0
 21 33  1  1
 21 34  1  0
M  END
$$$$
