ZINC000007881121
     RDKit          3D

 47 49  0  0  0  0  0  0  0  0999 V2000
    0.0164    1.3408   -0.0249 C   0  0  1  0  0  0  0  0  0  0  0  0
   -0.2109   -0.1463    0.0633 C   0  0  0  0  0  0  0  0  0  0  0  0
   -0.4706   -0.8725   -1.0852 C   0  0  0  0  0  0  0  0  0  0  0  0
   -0.6797   -2.2344   -1.0114 C   0  0  0  0  0  0  0  0  0  0  0  0
   -0.6286   -2.8791    0.2254 C   0  0  0  0  0  0  0  0  0  0  0  0
   -0.8511   -4.3378    0.3119 C   0  0  0  0  0  0  0  0  0  0  0  0
   -0.8060   -4.8967    1.3905 O   0  0  0  0  0  0  0  0  0  0  0  0
   -1.1039   -5.0483   -0.8052 N   0  0  0  0  0  0  0  0  0  0  0  0
   -1.4130   -6.4091   -0.7133 C   0  0  0  0  0  0  0  0  0  0  0  0
   -0.9919   -7.2868   -1.7040 C   0  0  0  0  0  0  0  0  0  0  0  0
   -1.2989   -8.6301   -1.6103 C   0  0  0  0  0  0  0  0  0  0  0  0
   -2.0250   -9.1014   -0.5320 C   0  0  0  0  0  0  0  0  0  0  0  0
   -2.3581  -10.5678   -0.4330 C   0  0  1  0  0  0  0  0  0  0  0  0
   -1.3404  -11.2315    0.2605 F   0  0  0  0  0  0  0  0  0  0  0  0
   -3.5683  -10.7260    0.2507 F   0  0  0  0  0  0  0  0  0  0  0  0
   -2.4748  -11.1073   -1.7186 F   0  0  0  0  0  0  0  0  0  0  0  0
   -2.4457   -8.2302    0.4561 C   0  0  0  0  0  0  0  0  0  0  0  0
   -2.1368   -6.8867    0.3716 C   0  0  0  0  0  0  0  0  0  0  0  0
   -0.3660   -2.1402    1.3805 C   0  0  0  0  0  0  0  0  0  0  0  0
   -0.1533   -0.7803    1.2920 C   0  0  0  0  0  0  0  0  0  0  0  0
    0.1788    0.1541    2.7485 S   0  0  1  0  0  0  0  0  0  0  0  0
   -0.6734    1.2902    2.6995 O   0  0  0  0  0  0  0  0  0  0  0  0
    0.1795   -0.7709    3.8272 O   0  0  0  0  0  0  0  0  0  0  0  0
    1.7278    0.7257    2.6216 N   0  0  0  0  0  0  0  0  0  0  0  0
    2.9471   -0.0195    2.9676 C   0  0  1  0  0  0  0  0  0  0  0  0
    4.1454    0.9189    2.7124 C   0  0  1  0  0  0  0  0  0  0  0  0
    3.5019    2.3293    2.7750 C   0  0  1  0  0  0  0  0  0  0  0  0
    2.1130    2.0637    2.1370 C   0  0  1  0  0  0  0  0  0  0  0  0
    1.0862    1.5422   -0.0798 H   0  0  0  0  0  0  0  0  0  0  0  0
   -0.4730    1.7309   -0.9173 H   0  0  0  0  0  0  0  0  0  0  0  0
   -0.3996    1.8250    0.8586 H   0  0  0  0  0  0  0  0  0  0  0  0
   -0.5102   -0.3724   -2.0415 H   0  0  0  0  0  0  0  0  0  0  0  0
   -0.8827   -2.8001   -1.9087 H   0  0  0  0  0  0  0  0  0  0  0  0
   -1.0715   -4.6158   -1.6728 H   0  0  0  0  0  0  0  0  0  0  0  0
   -0.4254   -6.9193   -2.5468 H   0  0  0  0  0  0  0  0  0  0  0  0
   -0.9717   -9.3131   -2.3803 H   0  0  0  0  0  0  0  0  0  0  0  0
   -3.0130   -8.6014    1.2968 H   0  0  0  0  0  0  0  0  0  0  0  0
   -2.4654   -6.2069    1.1437 H   0  0  0  0  0  0  0  0  0  0  0  0
   -0.3252   -2.6331    2.3406 H   0  0  0  0  0  0  0  0  0  0  0  0
    2.9196   -0.3082    4.0183 H   0  0  0  0  0  0  0  0  0  0  0  0
    3.0304   -0.9063    2.3394 H   0  0  0  0  0  0  0  0  0  0  0  0
    4.8984    0.8036    3.4921 H   0  0  0  0  0  0  0  0  0  0  0  0
    4.5765    0.7350    1.7283 H   0  0  0  0  0  0  0  0  0  0  0  0
    3.4035    2.6684    3.8062 H   0  0  0  0  0  0  0  0  0  0  0  0
    4.0715    3.0453    2.1826 H   0  0  0  0  0  0  0  0  0  0  0  0
    2.1871    2.0722    1.0496 H   0  0  0  0  0  0  0  0  0  0  0  0
    1.3918    2.8079    2.4748 H   0  0  0  0  0  0  0  0  0  0  0  0
  1  2  1  0
  1 29  1  6
  1 30  1  0
  1 31  1  0
  2 20  2  0
  2  3  1  0
  3  4  2  0
  3 32  1  0
  4  5  1  0
  4 33  1  0
  5  6  1  0
  5 19  2  0
  6  7  2  0
  6  8  1  0
  8  9  1  0
  8 34  1  0
  9 18  2  0
  9 10  1  0
 10 11  2  0
 10 35  1  0
 11 12  1  0
 11 36  1  0
 12 13  1  0
 12 17  2  0
 13 14  1  1
 13 15  1  0
 13 16  1  0
 17 18  1  0
 17 37  1  0
 18 38  1  0
 19 20  1  0
 19 39  1  0
 20 21  1  0
 21 22  2  0
 21 23  2  0
 21 24  1  6
 24 28  1  0
 24 25  1  0
 25 26  1  0
 25 40  1  1
 25 41  1  0
 26 27  1  0
 26 42  1  1
 26 43  1  0
 27 28  1  0
 27 44  1  1
 27 45  1  0
 28 46  1  6
 28 47  1  0
M  END
$$$$
