ZINC000408608176
     RDKit          3D

 65 67  0  0  1  0  0  0  0  0999 V2000
   -3.4432   -8.8417    0.6364 C   0  0  1  0  0  0  0  0  0  0  0  0
   -2.5320   -7.6540    0.4624 C   0  0  0  0  0  0  0  0  0  0  0  0
   -2.2436   -6.8402    1.5419 C   0  0  0  0  0  0  0  0  0  0  0  0
   -1.4078   -5.7507    1.3823 C   0  0  0  0  0  0  0  0  0  0  0  0
   -0.8601   -5.4754    0.1433 C   0  0  0  0  0  0  0  0  0  0  0  0
    0.0507   -4.2875   -0.0308 C   0  0  1  0  0  0  0  0  0  0  0  0
    1.4456   -4.7207    0.0831 N   0  0  0  0  0  0  0  0  0  0  0  0
    2.0613   -4.8678    1.4042 C   0  0  1  0  0  0  0  0  0  0  0  0
    1.7433   -6.2331    1.9574 C   0  0  0  0  0  0  0  0  0  0  0  0
    1.0687   -7.0070    1.3117 O   0  0  0  0  0  0  0  0  0  0  0  0
    2.2086   -6.5941    3.1697 N   0  0  0  0  0  0  0  0  0  0  0  0
    1.8994   -7.9212    3.7075 C   0  0  1  0  0  0  0  0  0  0  0  0
    0.8969   -8.2149    3.3963 H   0  0  0  0  0  0  0  0  0  0  0  0
    2.9154   -8.9354    3.1781 C   0  0  1  0  0  0  0  0  0  0  0  0
    1.9678   -7.8809    5.2355 C   0  0  1  0  0  0  0  0  0  0  0  0
    0.8688   -6.9611    5.7711 C   0  0  1  0  0  0  0  0  0  0  0  0
    0.9361   -6.9214    7.2761 C   0  0  0  0  0  0  0  0  0  0  0  0
    0.2207   -7.8375    8.0243 C   0  0  0  0  0  0  0  0  0  0  0  0
    0.2825   -7.8012    9.4048 C   0  0  0  0  0  0  0  0  0  0  0  0
    1.0600   -6.8489   10.0370 C   0  0  0  0  0  0  0  0  0  0  0  0
    1.7760   -5.9334    9.2888 C   0  0  0  0  0  0  0  0  0  0  0  0
    1.7176   -5.9725    7.9082 C   0  0  0  0  0  0  0  0  0  0  0  0
    2.3262   -5.0441   -1.2816 S   0  0  1  0  0  0  0  0  0  0  0  0
    3.2845   -6.0280   -0.9170 O   0  0  0  0  0  0  0  0  0  0  0  0
    1.3864   -5.2261   -2.3318 O   0  0  0  0  0  0  0  0  0  0  0  0
    3.2345   -3.5861   -1.6739 C   0  0  0  0  0  0  0  0  0  0  0  0
    2.7216   -2.6745   -2.5776 C   0  0  0  0  0  0  0  0  0  0  0  0
    3.4342   -1.5306   -2.8854 C   0  0  0  0  0  0  0  0  0  0  0  0
    4.6595   -1.2982   -2.2891 C   0  0  0  0  0  0  0  0  0  0  0  0
    5.4366   -0.0515   -2.6249 C   0  0  1  0  0  0  0  0  0  0  0  0
    5.1718   -2.2092   -1.3843 C   0  0  0  0  0  0  0  0  0  0  0  0
    4.4574   -3.3512   -1.0737 C   0  0  0  0  0  0  0  0  0  0  0  0
   -1.1474   -6.2901   -0.9359 C   0  0  0  0  0  0  0  0  0  0  0  0
   -1.9802   -7.3817   -0.7754 C   0  0  0  0  0  0  0  0  0  0  0  0
   -2.8525   -9.7158    0.9104 H   0  0  0  0  0  0  0  0  0  0  0  0
   -4.1677   -8.6316    1.4232 H   0  0  0  0  0  0  0  0  0  0  0  0
   -3.9685   -9.0367   -0.2985 H   0  0  0  0  0  0  0  0  0  0  0  0
   -2.6715   -7.0552    2.5099 H   0  0  0  0  0  0  0  0  0  0  0  0
   -1.1830   -5.1145    2.2255 H   0  0  0  0  0  0  0  0  0  0  0  0
   -0.1132   -3.8449   -1.0133 H   0  0  0  0  0  0  0  0  0  0  0  0
   -0.1644   -3.5485    0.7410 H   0  0  0  0  0  0  0  0  0  0  0  0
    3.1418   -4.7542    1.3161 H   0  0  0  0  0  0  0  0  0  0  0  0
    1.6691   -4.1036    2.0751 H   0  0  0  0  0  0  0  0  0  0  0  0
    2.7481   -5.9751    3.6862 H   0  0  0  0  0  0  0  0  0  0  0  0
    2.6853   -9.9228    3.5783 H   0  0  0  0  0  0  0  0  0  0  0  0
    2.8666   -8.9641    2.0896 H   0  0  0  0  0  0  0  0  0  0  0  0
    3.9179   -8.6417    3.4894 H   0  0  0  0  0  0  0  0  0  0  0  0
    1.8256   -8.8862    5.6322 H   0  0  0  0  0  0  0  0  0  0  0  0
    2.9417   -7.5023    5.5457 H   0  0  0  0  0  0  0  0  0  0  0  0
    1.0110   -5.9558    5.3744 H   0  0  0  0  0  0  0  0  0  0  0  0
   -0.1052   -7.3397    5.4608 H   0  0  0  0  0  0  0  0  0  0  0  0
   -0.3867   -8.5815    7.5304 H   0  0  0  0  0  0  0  0  0  0  0  0
   -0.2769   -8.5165    9.9894 H   0  0  0  0  0  0  0  0  0  0  0  0
    1.1077   -6.8200   11.1156 H   0  0  0  0  0  0  0  0  0  0  0  0
    2.3832   -5.1892    9.7827 H   0  0  0  0  0  0  0  0  0  0  0  0
    2.2771   -5.2572    7.3236 H   0  0  0  0  0  0  0  0  0  0  0  0
    1.7643   -2.8560   -3.0435 H   0  0  0  0  0  0  0  0  0  0  0  0
    3.0338   -0.8187   -3.5919 H   0  0  0  0  0  0  0  0  0  0  0  0
    5.1560    0.7475   -1.9386 H   0  0  0  0  0  0  0  0  0  0  0  0
    6.5039   -0.2524   -2.5318 H   0  0  0  0  0  0  0  0  0  0  0  0
    5.2120    0.2522   -3.6474 H   0  0  0  0  0  0  0  0  0  0  0  0
    6.1289   -2.0275   -0.9182 H   0  0  0  0  0  0  0  0  0  0  0  0
    4.8576   -4.0629   -0.3668 H   0  0  0  0  0  0  0  0  0  0  0  0
   -0.7192   -6.0752   -1.9038 H   0  0  0  0  0  0  0  0  0  0  0  0
   -2.2047   -8.0182   -1.6186 H   0  0  0  0  0  0  0  0  0  0  0  0
  1  2  1  0
  1 35  1  1
  1 36  1  0
  1 37  1  0
  2 34  2  0
  2  3  1  0
  3  4  2  0
  3 38  1  0
  4  5  1  0
  4 39  1  0
  5  6  1  0
  5 33  2  0
  6  7  1  0
  6 40  1  6
  6 41  1  0
  7  8  1  0
 23  7  1  1
  8  9  1  0
  8 42  1  6
  8 43  1  0
  9 10  2  0
  9 11  1  0
 11 12  1  0
 11 44  1  0
 12 13  1  1
 12 14  1  0
 12 15  1  0
 14 45  1  1
 14 46  1  0
 14 47  1  0
 15 16  1  0
 15 48  1  1
 15 49  1  0
 16 17  1  0
 16 50  1  6
 16 51  1  0
 17 22  2  0
 17 18  1  0
 18 19  2  0
 18 52  1  0
 19 20  1  0
 19 53  1  0
 20 21  2  0
 20 54  1  0
 21 22  1  0
 21 55  1  0
 22 56  1  0
 23 24  2  0
 23 25  2  0
 23 26  1  0
 26 32  2  0
 26 27  1  0
 27 28  2  0
 27 57  1  0
 28 29  1  0
 28 58  1  0
 29 30  1  0
 29 31  2  0
 30 59  1  1
 30 60  1  0
 30 61  1  0
 31 32  1  0
 31 62  1  0
 32 63  1  0
 33 34  1  0
 33 64  1  0
 34 65  1  0
M  END
$$$$
