ZINC000095455455
     RDKit          3D

 54 56  0  0  1  0  0  0  0  0999 V2000
   -1.1875    1.2255   -0.6326 C   0  0  1  0  0  0  0  0  0  0  0  0
   -0.5952   -0.1520   -0.3286 C   0  0  1  0  0  0  0  0  0  0  0  0
   -1.3959   -0.8404   -0.0584 H   0  0  0  0  0  0  0  0  0  0  0  0
    0.1345   -0.6786   -1.5672 C   0  0  1  0  0  0  0  0  0  0  0  0
    0.7755   -2.0300   -1.2366 C   0  0  1  0  0  0  0  0  0  0  0  0
    1.5609   -2.5198   -2.4258 C   0  0  0  0  0  0  0  0  0  0  0  0
    1.9444   -1.7328   -3.2651 O   0  0  0  0  0  0  0  0  0  0  0  0
    1.8371   -3.8325   -2.5566 N   0  0  0  0  0  0  0  0  0  0  0  0
    1.2946   -4.8097   -1.6024 C   0  0  1  0  0  0  0  0  0  0  0  0
    0.5250   -5.8821   -2.3835 C   0  0  1  0  0  0  0  0  0  0  0  0
    1.3738   -6.3618   -3.4832 N   0  0  0  0  0  0  0  0  0  0  0  0
    1.7123   -7.9748   -3.6445 S   0  0  1  0  0  0  0  0  0  0  0  0
    2.9226   -8.0588   -4.3844 O   0  0  0  0  0  0  0  0  0  0  0  0
    1.5477   -8.5503   -2.3557 O   0  0  0  0  0  0  0  0  0  0  0  0
    0.4561   -8.6719   -4.6648 C   0  0  0  0  0  0  0  0  0  0  0  0
   -0.6976   -9.1756   -4.0937 C   0  0  0  0  0  0  0  0  0  0  0  0
   -1.6831   -9.7224   -4.8941 C   0  0  0  0  0  0  0  0  0  0  0  0
   -1.5151   -9.7652   -6.2655 C   0  0  0  0  0  0  0  0  0  0  0  0
   -2.5893  -10.3618   -7.1381 C   0  0  1  0  0  0  0  0  0  0  0  0
   -3.4926   -9.3622   -7.5149 F   0  0  0  0  0  0  0  0  0  0  0  0
   -2.0058  -10.9182   -8.2814 F   0  0  0  0  0  0  0  0  0  0  0  0
   -3.2666  -11.3588   -6.4279 F   0  0  0  0  0  0  0  0  0  0  0  0
   -0.3620   -9.2602   -6.8367 C   0  0  0  0  0  0  0  0  0  0  0  0
    0.6219   -8.7099   -6.0366 C   0  0  0  0  0  0  0  0  0  0  0  0
    1.9163   -5.3846   -4.4373 C   0  0  1  0  0  0  0  0  0  0  0  0
    2.6813   -4.3129   -3.6595 C   0  0  1  0  0  0  0  0  0  0  0  0
    1.7139   -1.8580   -0.0382 C   0  0  1  0  0  0  0  0  0  0  0  0
    0.9232   -1.2859    1.1413 C   0  0  2  0  0  0  0  0  0  0  0  0
    1.5951   -1.1213    1.9837 H   0  0  0  0  0  0  0  0  0  0  0  0
   -0.1725   -2.2733    1.5479 C   0  0  1  0  0  0  0  0  0  0  0  0
    0.3278   -0.0449    0.7571 O   0  0  0  0  0  0  0  0  0  0  0  0
   -0.3866    1.9138   -0.9028 H   0  0  0  0  0  0  0  0  0  0  0  0
   -1.8912    1.1437   -1.4610 H   0  0  0  0  0  0  0  0  0  0  0  0
   -1.7066    1.6005    0.2495 H   0  0  0  0  0  0  0  0  0  0  0  0
   -0.5768   -0.8028   -2.3837 H   0  0  0  0  0  0  0  0  0  0  0  0
    0.9090    0.0294   -1.8621 H   0  0  0  0  0  0  0  0  0  0  0  0
   -0.0030   -2.7524   -0.9910 H   0  0  0  0  0  0  0  0  0  0  0  0
    2.1115   -5.2747   -1.0507 H   0  0  0  0  0  0  0  0  0  0  0  0
    0.6202   -4.3079   -0.9085 H   0  0  0  0  0  0  0  0  0  0  0  0
    0.2806   -6.7124   -1.7210 H   0  0  0  0  0  0  0  0  0  0  0  0
   -0.3910   -5.4525   -2.7890 H   0  0  0  0  0  0  0  0  0  0  0  0
   -0.8289   -9.1422   -3.0223 H   0  0  0  0  0  0  0  0  0  0  0  0
   -2.5842  -10.1166   -4.4479 H   0  0  0  0  0  0  0  0  0  0  0  0
   -0.2309   -9.2932   -7.9082 H   0  0  0  0  0  0  0  0  0  0  0  0
    1.5228   -8.3153   -6.4828 H   0  0  0  0  0  0  0  0  0  0  0  0
    2.5907   -5.8864   -5.1312 H   0  0  0  0  0  0  0  0  0  0  0  0
    1.0994   -4.9196   -4.9891 H   0  0  0  0  0  0  0  0  0  0  0  0
    2.9251   -3.4832   -4.3231 H   0  0  0  0  0  0  0  0  0  0  0  0
    3.5976   -4.7404   -3.2524 H   0  0  0  0  0  0  0  0  0  0  0  0
    2.1321   -2.8257    0.2388 H   0  0  0  0  0  0  0  0  0  0  0  0
    2.5203   -1.1738   -0.3023 H   0  0  0  0  0  0  0  0  0  0  0  0
    0.2818   -3.2200    1.8402 H   0  0  0  0  0  0  0  0  0  0  0  0
   -0.7354   -1.8658    2.3877 H   0  0  0  0  0  0  0  0  0  0  0  0
   -0.8445   -2.4374    0.7056 H   0  0  0  0  0  0  0  0  0  0  0  0
  1  2  1  0
  1 32  1  6
  1 33  1  0
  1 34  1  0
  2  3  1  1
  2 31  1  0
  2  4  1  0
  4  5  1  0
  4 35  1  6
  4 36  1  0
  5  6  1  0
  5 27  1  0
  5 37  1  1
  6  7  2  0
  6  8  1  0
  8 26  1  0
  8  9  1  0
  9 10  1  0
  9 38  1  1
  9 39  1  0
 10 11  1  0
 10 40  1  1
 10 41  1  0
 12 11  1  1
 11 25  1  0
 12 13  2  0
 12 14  2  0
 12 15  1  0
 15 24  2  0
 15 16  1  0
 16 17  2  0
 16 42  1  0
 17 18  1  0
 17 43  1  0
 18 19  1  0
 18 23  2  0
 19 20  1  6
 19 21  1  0
 19 22  1  0
 23 24  1  0
 23 44  1  0
 24 45  1  0
 25 26  1  0
 25 46  1  6
 25 47  1  0
 26 48  1  6
 26 49  1  0
 27 28  1  0
 27 50  1  1
 27 51  1  0
 28 29  1  1
 28 30  1  0
 28 31  1  0
 30 52  1  1
 30 53  1  0
 30 54  1  0
M  END
$$$$
