ZINC000096104317
     RDKit          3D

 40 42  0  0  0  0  0  0  0  0999 V2000
    0.0021   -0.0041    0.0020 O   0  0  0  0  0  0  0  0  0  0  0  0
   -0.0172    1.4168    0.0098 S   0  0  1  0  0  0  0  0  0  0  0  0
    1.1903    2.1659    0.0023 O   0  0  0  0  0  0  0  0  0  0  0  0
   -0.8061    1.8490   -1.5052 C   0  0  0  0  0  0  0  0  0  0  0  0
   -1.6949    0.9704   -2.0963 C   0  0  0  0  0  0  0  0  0  0  0  0
   -2.3142    1.3083   -3.2846 C   0  0  0  0  0  0  0  0  0  0  0  0
   -2.0447    2.5275   -3.8829 C   0  0  0  0  0  0  0  0  0  0  0  0
   -2.6499    2.8591   -5.0444 F   0  0  0  0  0  0  0  0  0  0  0  0
   -1.1547    3.4069   -3.2898 C   0  0  0  0  0  0  0  0  0  0  0  0
   -0.5402    3.0688   -2.0990 C   0  0  0  0  0  0  0  0  0  0  0  0
   -1.1394    2.0311    1.2958 C   0  0  1  0  0  0  0  0  0  0  0  0
   -2.2969    1.0692    1.6196 C   0  0  1  0  0  0  0  0  0  0  0  0
   -2.0452    1.4025    3.0350 N   0  0  0  0  0  0  0  0  0  0  0  0
   -2.9633    1.3824    4.4131 S   0  0  1  0  0  0  0  0  0  0  0  0
   -2.3586    2.3023    5.3116 O   0  0  0  0  0  0  0  0  0  0  0  0
   -4.3176    1.4809    3.9944 O   0  0  0  0  0  0  0  0  0  0  0  0
   -2.7814   -0.2134    5.1377 C   0  0  0  0  0  0  0  0  0  0  0  0
   -3.6448   -1.2343    4.7868 C   0  0  0  0  0  0  0  0  0  0  0  0
   -3.5021   -2.4863    5.3553 C   0  0  0  0  0  0  0  0  0  0  0  0
   -2.4957   -2.7174    6.2743 C   0  0  0  0  0  0  0  0  0  0  0  0
   -2.3404   -4.0821    6.8944 C   0  0  1  0  0  0  0  0  0  0  0  0
   -1.4803   -4.8564    6.1083 F   0  0  0  0  0  0  0  0  0  0  0  0
   -1.8061   -3.9518    8.1807 F   0  0  0  0  0  0  0  0  0  0  0  0
   -3.5908   -4.7051    6.9697 F   0  0  0  0  0  0  0  0  0  0  0  0
   -1.6314   -1.6969    6.6241 C   0  0  0  0  0  0  0  0  0  0  0  0
   -1.7717   -0.4460    6.0528 C   0  0  0  0  0  0  0  0  0  0  0  0
   -0.6467    1.7611    2.7291 C   0  0  1  0  0  0  0  0  0  0  0  0
   -1.9050    0.0195   -1.6295 H   0  0  0  0  0  0  0  0  0  0  0  0
   -3.0080    0.6215   -3.7466 H   0  0  0  0  0  0  0  0  0  0  0  0
   -0.9435    4.3580   -3.7557 H   0  0  0  0  0  0  0  0  0  0  0  0
    0.1538    3.7547   -1.6359 H   0  0  0  0  0  0  0  0  0  0  0  0
   -1.4560    3.0604    1.1272 H   0  0  0  0  0  0  0  0  0  0  0  0
   -3.2659    1.4089    1.2538 H   0  0  0  0  0  0  0  0  0  0  0  0
   -2.0871    0.0293    1.3691 H   0  0  0  0  0  0  0  0  0  0  0  0
   -4.4311   -1.0537    4.0688 H   0  0  0  0  0  0  0  0  0  0  0  0
   -4.1772   -3.2837    5.0817 H   0  0  0  0  0  0  0  0  0  0  0  0
   -0.8449   -1.8776    7.3418 H   0  0  0  0  0  0  0  0  0  0  0  0
   -1.0965    0.3513    6.3261 H   0  0  0  0  0  0  0  0  0  0  0  0
    0.0479    0.9245    2.8046 H   0  0  0  0  0  0  0  0  0  0  0  0
   -0.2980    2.6533    3.2492 H   0  0  0  0  0  0  0  0  0  0  0  0
  1  2  2  0
  2  3  2  0
  2  4  1  6
  2 11  1  0
  4 10  2  0
  4  5  1  0
  5  6  2  0
  5 28  1  0
  6  7  1  0
  6 29  1  0
  7  8  1  0
  7  9  2  0
  9 10  1  0
  9 30  1  0
 10 31  1  0
 11 27  1  0
 11 12  1  0
 11 32  1  1
 12 13  1  0
 12 33  1  6
 12 34  1  0
 14 13  1  6
 13 27  1  0
 14 15  2  0
 14 16  2  0
 14 17  1  0
 17 26  2  0
 17 18  1  0
 18 19  2  0
 18 35  1  0
 19 20  1  0
 19 36  1  0
 20 21  1  0
 20 25  2  0
 21 22  1  6
 21 23  1  0
 21 24  1  0
 25 26  1  0
 25 37  1  0
 26 38  1  0
 27 39  1  6
 27 40  1  0
M  END
$$$$
