ZINC000012800113
     RDKit          3D

 62 64  0  0  1  0  0  0  0  0999 V2000
   -0.0187    1.5258    0.0104 C   0  0  1  0  0  0  0  0  0  0  0  0
    0.0021   -0.0041    0.0020 C   0  0  1  0  0  0  0  0  0  0  0  0
    0.7421   -0.5109    1.2415 C   0  0  1  0  0  0  0  0  0  0  0  0
   -1.3761   -0.5125    0.0124 N   0  0  2  0  0  0  0  0  0  0  0  0
   -1.8475   -0.1866    0.8429 H   0  0  0  0  0  0  0  0  0  0  0  0
   -1.3546   -1.9802    0.0080 C   0  0  1  0  0  0  0  0  0  0  0  0
   -2.7852   -2.5153    0.1006 C   0  0  1  0  0  0  0  0  0  0  0  0
   -3.5915   -2.0114   -1.0998 C   0  0  1  0  0  0  0  0  0  0  0  0
   -4.9818   -2.4571   -0.9781 N   0  0  0  0  0  0  0  0  0  0  0  0
   -5.7456   -2.5909   -2.0804 C   0  0  0  0  0  0  0  0  0  0  0  0
   -5.2820   -2.3422   -3.1732 O   0  0  0  0  0  0  0  0  0  0  0  0
   -7.1757   -3.0494   -1.9551 C   0  0  1  0  0  0  0  0  0  0  0  0
   -7.9532   -2.0616   -1.0823 C   0  0  1  0  0  0  0  0  0  0  0  0
   -9.3974   -2.5491   -0.9288 C   0  0  1  0  0  0  0  0  0  0  0  0
   -9.9716   -2.7550   -2.2654 N   0  0  0  0  0  0  0  0  0  0  0  0
  -11.3983   -2.0303   -2.6915 S   0  0  1  0  0  0  0  0  0  0  0  0
  -11.9489   -2.8143   -3.7410 O   0  0  0  0  0  0  0  0  0  0  0  0
  -12.0886   -1.7595   -1.4793 O   0  0  0  0  0  0  0  0  0  0  0  0
  -10.9984   -0.4658   -3.3965 C   0  0  0  0  0  0  0  0  0  0  0  0
  -10.9029    0.6519   -2.5891 C   0  0  0  0  0  0  0  0  0  0  0  0
  -10.5890    1.8795   -3.1423 C   0  0  0  0  0  0  0  0  0  0  0  0
  -10.3704    1.9890   -4.5027 C   0  0  0  0  0  0  0  0  0  0  0  0
  -10.4650    0.8707   -5.3102 C   0  0  0  0  0  0  0  0  0  0  0  0
  -10.2271    0.9901   -6.7935 C   0  0  1  0  0  0  0  0  0  0  0  0
   -9.9289    2.3192   -7.1125 F   0  0  0  0  0  0  0  0  0  0  0  0
   -9.1546    0.1705   -7.1612 F   0  0  0  0  0  0  0  0  0  0  0  0
  -11.3767    0.5915   -7.4838 F   0  0  0  0  0  0  0  0  0  0  0  0
  -10.7745   -0.3573   -4.7566 C   0  0  0  0  0  0  0  0  0  0  0  0
   -9.2558   -3.6158   -3.2169 C   0  0  1  0  0  0  0  0  0  0  0  0
   -7.8132   -3.1163   -3.3448 C   0  0  1  0  0  0  0  0  0  0  0  0
   -3.5450   -0.4809   -1.1273 C   0  0  1  0  0  0  0  0  0  0  0  0
   -2.0858   -0.0226   -1.1753 C   0  0  1  0  0  0  0  0  0  0  0  0
    1.0039    1.9031    0.0027 H   0  0  0  0  0  0  0  0  0  0  0  0
   -0.5459    1.8868   -0.8726 H   0  0  0  0  0  0  0  0  0  0  0  0
   -0.5289    1.8773    0.9072 H   0  0  0  0  0  0  0  0  0  0  0  0
    0.5123   -0.3556   -0.8948 H   0  0  0  0  0  0  0  0  0  0  0  0
    0.2319   -0.1594    2.1383 H   0  0  0  0  0  0  0  0  0  0  0  0
    0.7568   -1.6008    1.2356 H   0  0  0  0  0  0  0  0  0  0  0  0
    1.7647   -0.1336    1.2338 H   0  0  0  0  0  0  0  0  0  0  0  0
   -0.8940   -2.3336   -0.9146 H   0  0  0  0  0  0  0  0  0  0  0  0
   -0.7776   -2.3373    0.8610 H   0  0  0  0  0  0  0  0  0  0  0  0
   -2.7672   -3.6052    0.0953 H   0  0  0  0  0  0  0  0  0  0  0  0
   -3.2467   -2.1627    1.0229 H   0  0  0  0  0  0  0  0  0  0  0  0
   -3.1613   -2.4069   -2.0199 H   0  0  0  0  0  0  0  0  0  0  0  0
   -5.3525   -2.6560   -0.1041 H   0  0  0  0  0  0  0  0  0  0  0  0
   -7.2012   -4.0376   -1.4959 H   0  0  0  0  0  0  0  0  0  0  0  0
   -7.4847   -1.9968   -0.1003 H   0  0  0  0  0  0  0  0  0  0  0  0
   -7.9492   -1.0786   -1.5534 H   0  0  0  0  0  0  0  0  0  0  0  0
   -9.4090   -3.4892   -0.3773 H   0  0  0  0  0  0  0  0  0  0  0  0
   -9.9804   -1.8009   -0.3918 H   0  0  0  0  0  0  0  0  0  0  0  0
  -11.0737    0.5664   -1.5262 H   0  0  0  0  0  0  0  0  0  0  0  0
  -10.5151    2.7530   -2.5115 H   0  0  0  0  0  0  0  0  0  0  0  0
  -10.1259    2.9480   -4.9349 H   0  0  0  0  0  0  0  0  0  0  0  0
  -10.8484   -1.2308   -5.3873 H   0  0  0  0  0  0  0  0  0  0  0  0
   -9.2558   -4.6429   -2.8519 H   0  0  0  0  0  0  0  0  0  0  0  0
   -9.7454   -3.5714   -4.1897 H   0  0  0  0  0  0  0  0  0  0  0  0
   -7.8105   -2.1234   -3.7945 H   0  0  0  0  0  0  0  0  0  0  0  0
   -7.2451   -3.8024   -3.9730 H   0  0  0  0  0  0  0  0  0  0  0  0
   -4.0702   -0.1166   -2.0103 H   0  0  0  0  0  0  0  0  0  0  0  0
   -4.0223   -0.0861   -0.2304 H   0  0  0  0  0  0  0  0  0  0  0  0
   -2.0480    1.0665   -1.1952 H   0  0  0  0  0  0  0  0  0  0  0  0
   -1.6105   -0.4182   -2.0730 H   0  0  0  0  0  0  0  0  0  0  0  0
  1  2  1  0
  1 33  1  6
  1 34  1  0
  1 35  1  0
  2  3  1  0
  2  4  1  0
  2 36  1  6
  3 37  1  1
  3 38  1  0
  3 39  1  0
  4  5  1  1
  4 32  1  0
  4  6  1  0
  6  7  1  0
  6 40  1  6
  6 41  1  0
  7  8  1  0
  7 42  1  1
  7 43  1  0
  8  9  1  0
  8 31  1  0
  8 44  1  6
  9 10  1  0
  9 45  1  0
 10 11  2  0
 10 12  1  0
 12 30  1  0
 12 13  1  0
 12 46  1  1
 13 14  1  0
 13 47  1  1
 13 48  1  0
 14 15  1  0
 14 49  1  1
 14 50  1  0
 16 15  1  1
 15 29  1  0
 16 17  2  0
 16 18  2  0
 16 19  1  0
 19 28  2  0
 19 20  1  0
 20 21  2  0
 20 51  1  0
 21 22  1  0
 21 52  1  0
 22 23  2  0
 22 53  1  0
 23 24  1  0
 23 28  1  0
 24 25  1  1
 24 26  1  0
 24 27  1  0
 28 54  1  0
 29 30  1  0
 29 55  1  1
 29 56  1  0
 30 57  1  6
 30 58  1  0
 31 32  1  0
 31 59  1  6
 31 60  1  0
 32 61  1  6
 32 62  1  0
M  CHG  1   4   1
M  END
$$$$
