ZINC000085467230
     RDKit          3D

 42 43  0  0  1  0  0  0  0  0999 V2000
    1.9591    1.3848   -0.1799 C   0  0  1  0  0  0  0  0  0  0  0  0
    1.9709   -0.1185   -0.4642 C   0  0  2  0  0  0  0  0  0  0  0  0
    1.9843   -0.6664    0.4780 H   0  0  0  0  0  0  0  0  0  0  0  0
    3.1343   -0.4504   -1.2248 O   0  0  0  0  0  0  0  0  0  0  0  0
    0.7182   -0.4975   -1.2568 C   0  0  1  0  0  0  0  0  0  0  0  0
    0.6760   -1.9546   -1.4387 N   0  0  0  0  0  0  0  0  0  0  0  0
    0.9225   -2.6510   -0.1689 C   0  0  1  0  0  0  0  0  0  0  0  0
    0.6920   -4.1537   -0.3612 C   0  0  1  0  0  0  0  0  0  0  0  0
    1.5142   -4.6116   -1.4915 N   0  0  0  0  0  0  0  0  0  0  0  0
    2.5153   -5.9219   -1.3385 S   0  0  1  0  0  0  0  0  0  0  0  0
    3.5240   -5.7739   -2.3283 O   0  0  0  0  0  0  0  0  0  0  0  0
    2.7996   -6.0499    0.0479 O   0  0  0  0  0  0  0  0  0  0  0  0
    1.5817   -7.3468   -1.7886 C   0  0  0  0  0  0  0  0  0  0  0  0
    0.8640   -8.0347   -0.8280 C   0  0  0  0  0  0  0  0  0  0  0  0
    0.1316   -9.1526   -1.1812 C   0  0  0  0  0  0  0  0  0  0  0  0
    0.1166   -9.5825   -2.4949 C   0  0  0  0  0  0  0  0  0  0  0  0
   -0.6814  -10.8015   -2.8798 C   0  0  1  0  0  0  0  0  0  0  0  0
   -1.9783  -10.4165   -3.2362 F   0  0  0  0  0  0  0  0  0  0  0  0
   -0.0685  -11.4365   -3.9653 F   0  0  0  0  0  0  0  0  0  0  0  0
   -0.7383  -11.6832   -1.7951 F   0  0  0  0  0  0  0  0  0  0  0  0
    0.8332   -8.8938   -3.4557 C   0  0  0  0  0  0  0  0  0  0  0  0
    1.5625   -7.7736   -3.1033 C   0  0  0  0  0  0  0  0  0  0  0  0
    1.4233   -3.8752   -2.7615 C   0  0  1  0  0  0  0  0  0  0  0  0
    1.6251   -2.3835   -2.4747 C   0  0  1  0  0  0  0  0  0  0  0  0
    1.9458    1.9326   -1.1221 H   0  0  0  0  0  0  0  0  0  0  0  0
    1.0717    1.6379    0.4002 H   0  0  0  0  0  0  0  0  0  0  0  0
    2.8516    1.6547    0.3847 H   0  0  0  0  0  0  0  0  0  0  0  0
    3.9673   -0.2371   -0.7825 H   0  0  0  0  0  0  0  0  0  0  0  0
   -0.1684   -0.1735   -0.7117 H   0  0  0  0  0  0  0  0  0  0  0  0
    0.7437   -0.0102   -2.2315 H   0  0  0  0  0  0  0  0  0  0  0  0
    1.9514   -2.4783    0.1468 H   0  0  0  0  0  0  0  0  0  0  0  0
    0.2398   -2.2727    0.5919 H   0  0  0  0  0  0  0  0  0  0  0  0
    0.9833   -4.6875    0.5434 H   0  0  0  0  0  0  0  0  0  0  0  0
   -0.3606   -4.3381   -0.5758 H   0  0  0  0  0  0  0  0  0  0  0  0
    0.8758   -7.6989    0.1984 H   0  0  0  0  0  0  0  0  0  0  0  0
   -0.4285   -9.6905   -0.4306 H   0  0  0  0  0  0  0  0  0  0  0  0
    0.8212   -9.2294   -4.4821 H   0  0  0  0  0  0  0  0  0  0  0  0
    2.1224   -7.2356   -3.8539 H   0  0  0  0  0  0  0  0  0  0  0  0
    2.1981   -4.2250   -3.4437 H   0  0  0  0  0  0  0  0  0  0  0  0
    0.4410   -4.0329   -3.2067 H   0  0  0  0  0  0  0  0  0  0  0  0
    1.4518   -1.8112   -3.3860 H   0  0  0  0  0  0  0  0  0  0  0  0
    2.6442   -2.2145   -2.1268 H   0  0  0  0  0  0  0  0  0  0  0  0
  1  2  1  0
  1 25  1  6
  1 26  1  0
  1 27  1  0
  2  3  1  1
  2  4  1  0
  2  5  1  0
  4 28  1  0
  5  6  1  0
  5 29  1  1
  5 30  1  0
  6 24  1  0
  6  7  1  0
  7  8  1  0
  7 31  1  1
  7 32  1  0
  8  9  1  0
  8 33  1  1
  8 34  1  0
 10  9  1  1
  9 23  1  0
 10 11  2  0
 10 12  2  0
 10 13  1  0
 13 22  2  0
 13 14  1  0
 14 15  2  0
 14 35  1  0
 15 16  1  0
 15 36  1  0
 16 17  1  0
 16 21  2  0
 17 18  1  6
 17 19  1  0
 17 20  1  0
 21 22  1  0
 21 37  1  0
 22 38  1  0
 23 24  1  0
 23 39  1  6
 23 40  1  0
 24 41  1  6
 24 42  1  0
M  END
$$$$
