ZINC000001075752
     RDKit          3D

 54 56  0  0  0  0  0  0  0  0999 V2000
   -9.0526   -6.1172    4.1531 C   0  0  1  0  0  0  0  0  0  0  0  0
   -9.2360   -4.7915    3.6521 O   0  0  0  0  0  0  0  0  0  0  0  0
   -8.2837   -4.3135    2.8081 C   0  0  0  0  0  0  0  0  0  0  0  0
   -7.1987   -5.1059    2.4650 C   0  0  0  0  0  0  0  0  0  0  0  0
   -6.2320   -4.6180    1.6064 C   0  0  0  0  0  0  0  0  0  0  0  0
   -6.3451   -3.3408    1.0897 C   0  0  0  0  0  0  0  0  0  0  0  0
   -5.1104   -2.7224   -0.0047 S   0  0  1  0  0  0  0  0  0  0  0  0
   -5.1596   -1.3057    0.0944 O   0  0  0  0  0  0  0  0  0  0  0  0
   -3.9344   -3.4788    0.2485 O   0  0  0  0  0  0  0  0  0  0  0  0
   -5.5869   -3.1002   -1.5450 N   0  0  0  0  0  0  0  0  0  0  0  0
   -5.2925   -4.4242   -2.0988 C   0  0  1  0  0  0  0  0  0  0  0  0
   -6.4800   -5.3294   -1.8947 C   0  0  0  0  0  0  0  0  0  0  0  0
   -7.4743   -4.9099   -1.3412 O   0  0  0  0  0  0  0  0  0  0  0  0
   -6.4371   -6.6051   -2.3273 N   0  0  0  0  0  0  0  0  0  0  0  0
   -7.5915   -7.4851   -2.1289 C   0  0  1  0  0  0  0  0  0  0  0  0
   -8.5715   -7.3458   -3.3121 C   0  0  1  0  0  0  0  0  0  0  0  0
   -8.1898   -8.5094   -4.2605 C   0  0  1  0  0  0  0  0  0  0  0  0
   -7.8554   -9.6573   -3.2759 C   0  0  1  0  0  0  0  0  0  0  0  0
   -7.1362   -8.9547   -2.1059 C   0  0  1  0  0  0  0  0  0  0  0  0
   -6.3027   -2.1105   -2.3539 C   0  0  1  0  0  0  0  0  0  0  0  0
   -5.3239   -1.3816   -3.2380 C   0  0  0  0  0  0  0  0  0  0  0  0
   -4.7910   -0.1732   -2.8298 C   0  0  0  0  0  0  0  0  0  0  0  0
   -3.8931    0.4954   -3.6407 C   0  0  0  0  0  0  0  0  0  0  0  0
   -3.5279   -0.0445   -4.8597 C   0  0  0  0  0  0  0  0  0  0  0  0
   -4.0602   -1.2534   -5.2676 C   0  0  0  0  0  0  0  0  0  0  0  0
   -4.9547   -1.9241   -4.4547 C   0  0  0  0  0  0  0  0  0  0  0  0
   -7.4258   -2.5479    1.4298 C   0  0  0  0  0  0  0  0  0  0  0  0
   -8.3985   -3.0330    2.2836 C   0  0  0  0  0  0  0  0  0  0  0  0
   -9.7551   -2.0375    2.7104 Cl  0  0  0  0  0  0  0  0  0  0  0  0
   -9.8812   -6.3740    4.8130 H   0  0  0  0  0  0  0  0  0  0  0  0
   -9.0204   -6.8193    3.3200 H   0  0  0  0  0  0  0  0  0  0  0  0
   -8.1161   -6.1693    4.7085 H   0  0  0  0  0  0  0  0  0  0  0  0
   -7.1090   -6.1036    2.8687 H   0  0  0  0  0  0  0  0  0  0  0  0
   -5.3869   -5.2351    1.3391 H   0  0  0  0  0  0  0  0  0  0  0  0
   -5.0834   -4.3339   -3.1647 H   0  0  0  0  0  0  0  0  0  0  0  0
   -4.4238   -4.8449   -1.5924 H   0  0  0  0  0  0  0  0  0  0  0  0
   -5.6419   -6.9407   -2.7700 H   0  0  0  0  0  0  0  0  0  0  0  0
   -8.0948   -7.2354   -1.1949 H   0  0  0  0  0  0  0  0  0  0  0  0
   -9.6007   -7.4547   -2.9698 H   0  0  0  0  0  0  0  0  0  0  0  0
   -8.4338   -6.3864   -3.8107 H   0  0  0  0  0  0  0  0  0  0  0  0
   -9.0314   -8.7801   -4.8981 H   0  0  0  0  0  0  0  0  0  0  0  0
   -7.3177   -8.2486   -4.8603 H   0  0  0  0  0  0  0  0  0  0  0  0
   -8.7689  -10.1394   -2.9278 H   0  0  0  0  0  0  0  0  0  0  0  0
   -7.1951  -10.3847   -3.7480 H   0  0  0  0  0  0  0  0  0  0  0  0
   -6.0563   -9.0133   -2.2423 H   0  0  0  0  0  0  0  0  0  0  0  0
   -7.4193   -9.4186   -1.1610 H   0  0  0  0  0  0  0  0  0  0  0  0
   -7.0450   -2.6151   -2.9724 H   0  0  0  0  0  0  0  0  0  0  0  0
   -6.8010   -1.3969   -1.6978 H   0  0  0  0  0  0  0  0  0  0  0  0
   -5.0763    0.2487   -1.8774 H   0  0  0  0  0  0  0  0  0  0  0  0
   -3.4773    1.4399   -3.3221 H   0  0  0  0  0  0  0  0  0  0  0  0
   -2.8270    0.4782   -5.4937 H   0  0  0  0  0  0  0  0  0  0  0  0
   -3.7751   -1.6750   -6.2201 H   0  0  0  0  0  0  0  0  0  0  0  0
   -5.3705   -2.8685   -4.7733 H   0  0  0  0  0  0  0  0  0  0  0  0
   -7.5120   -1.5504    1.0248 H   0  0  0  0  0  0  0  0  0  0  0  0
  1  2  1  0
  1 30  1  1
  1 31  1  0
  1 32  1  0
  2  3  1  0
  3 28  2  0
  3  4  1  0
  4  5  2  0
  4 33  1  0
  5  6  1  0
  5 34  1  0
  6  7  1  0
  6 27  2  0
  7  8  2  0
  7  9  2  0
  7 10  1  6
 10 11  1  0
 10 20  1  0
 11 12  1  0
 11 35  1  6
 11 36  1  0
 12 13  2  0
 12 14  1  0
 14 15  1  0
 14 37  1  0
 15 19  1  0
 15 16  1  0
 15 38  1  1
 16 17  1  0
 16 39  1  1
 16 40  1  0
 17 18  1  0
 17 41  1  6
 17 42  1  0
 18 19  1  0
 18 43  1  1
 18 44  1  0
 19 45  1  6
 19 46  1  0
 20 21  1  0
 20 47  1  6
 20 48  1  0
 21 26  2  0
 21 22  1  0
 22 23  2  0
 22 49  1  0
 23 24  1  0
 23 50  1  0
 24 25  2  0
 24 51  1  0
 25 26  1  0
 25 52  1  0
 26 53  1  0
 27 28  1  0
 27 54  1  0
 28 29  1  0
M  END
$$$$
