ZINC000408608117
     RDKit          3D

 62 64  0  0  1  0  0  0  0  0999 V2000
   -0.0184    1.5028    0.0103 C   0  0  1  0  0  0  0  0  0  0  0  0
    0.0021   -0.0041    0.0020 C   0  0  0  0  0  0  0  0  0  0  0  0
    0.0057   -0.6887   -1.1989 C   0  0  0  0  0  0  0  0  0  0  0  0
    0.0245   -2.0709   -1.2065 C   0  0  0  0  0  0  0  0  0  0  0  0
    0.0400   -2.7685   -0.0132 C   0  0  0  0  0  0  0  0  0  0  0  0
    0.0633   -4.5303   -0.0229 S   0  0  1  0  0  0  0  0  0  0  0  0
   -0.4690   -4.9455    1.2275 O   0  0  0  0  0  0  0  0  0  0  0  0
   -0.4824   -4.9319   -1.2719 O   0  0  0  0  0  0  0  0  0  0  0  0
    1.6514   -4.9995   -0.0340 N   0  0  0  0  0  0  0  0  0  0  0  0
    2.3607   -5.2139    1.2298 C   0  0  1  0  0  0  0  0  0  0  0  0
    2.3054   -6.6748    1.5953 C   0  0  0  0  0  0  0  0  0  0  0  0
    1.7301   -7.4597    0.8714 O   0  0  0  0  0  0  0  0  0  0  0  0
    2.8952   -7.1093    2.7267 N   0  0  0  0  0  0  0  0  0  0  0  0
    2.8414   -8.5295    3.0820 C   0  0  2  0  0  0  0  0  0  0  0  0
    2.8855   -9.1328    2.1752 H   0  0  0  0  0  0  0  0  0  0  0  0
    1.5359   -8.8203    3.8250 C   0  0  1  0  0  0  0  0  0  0  0  0
    4.0287   -8.8752    3.9828 C   0  0  1  0  0  0  0  0  0  0  0  0
    5.3311   -8.7032    3.1984 C   0  0  1  0  0  0  0  0  0  0  0  0
    6.5006   -9.0437    4.0857 C   0  0  0  0  0  0  0  0  0  0  0  0
    7.0965   -8.0594    4.8519 C   0  0  0  0  0  0  0  0  0  0  0  0
    8.1693   -8.3718    5.6658 C   0  0  0  0  0  0  0  0  0  0  0  0
    8.6459   -9.6684    5.7139 C   0  0  0  0  0  0  0  0  0  0  0  0
    8.0495  -10.6529    4.9484 C   0  0  0  0  0  0  0  0  0  0  0  0
    6.9740  -10.3415    4.1377 C   0  0  0  0  0  0  0  0  0  0  0  0
    2.3471   -5.2001   -1.3075 C   0  0  1  0  0  0  0  0  0  0  0  0
    3.0899   -3.9422   -1.6778 C   0  0  0  0  0  0  0  0  0  0  0  0
    2.5474   -3.0643   -2.5967 C   0  0  0  0  0  0  0  0  0  0  0  0
    3.2287   -1.9102   -2.9366 C   0  0  0  0  0  0  0  0  0  0  0  0
    4.4532   -1.6334   -2.3582 C   0  0  0  0  0  0  0  0  0  0  0  0
    4.9980   -2.5103   -1.4392 C   0  0  0  0  0  0  0  0  0  0  0  0
    4.3137   -3.6629   -1.0931 C   0  0  0  0  0  0  0  0  0  0  0  0
    4.8453   -4.5207   -0.1949 F   0  0  0  0  0  0  0  0  0  0  0  0
    0.0378   -2.0839    1.1877 C   0  0  0  0  0  0  0  0  0  0  0  0
    0.0229   -0.7016    1.1953 C   0  0  0  0  0  0  0  0  0  0  0  0
    1.0042    1.8801    0.0026 H   0  0  0  0  0  0  0  0  0  0  0  0
   -0.5455    1.8639   -0.8728 H   0  0  0  0  0  0  0  0  0  0  0  0
   -0.5286    1.8543    0.9071 H   0  0  0  0  0  0  0  0  0  0  0  0
   -0.0064   -0.1436   -2.1312 H   0  0  0  0  0  0  0  0  0  0  0  0
    0.0266   -2.6057   -2.1448 H   0  0  0  0  0  0  0  0  0  0  0  0
    3.4005   -4.9060    1.1197 H   0  0  0  0  0  0  0  0  0  0  0  0
    1.8886   -4.6246    2.0159 H   0  0  0  0  0  0  0  0  0  0  0  0
    3.3552   -6.4816    3.3056 H   0  0  0  0  0  0  0  0  0  0  0  0
    0.6899   -8.5740    3.1832 H   0  0  0  0  0  0  0  0  0  0  0  0
    1.4958   -9.8770    4.0893 H   0  0  0  0  0  0  0  0  0  0  0  0
    1.4917   -8.2170    4.7317 H   0  0  0  0  0  0  0  0  0  0  0  0
    4.0347   -8.2109    4.8470 H   0  0  0  0  0  0  0  0  0  0  0  0
    3.9409   -9.9082    4.3192 H   0  0  0  0  0  0  0  0  0  0  0  0
    5.3251   -9.3675    2.3342 H   0  0  0  0  0  0  0  0  0  0  0  0
    5.4189   -7.6702    2.8620 H   0  0  0  0  0  0  0  0  0  0  0  0
    6.7241   -7.0464    4.8143 H   0  0  0  0  0  0  0  0  0  0  0  0
    8.6353   -7.6026    6.2639 H   0  0  0  0  0  0  0  0  0  0  0  0
    9.4845   -9.9123    6.3492 H   0  0  0  0  0  0  0  0  0  0  0  0
    8.4221  -11.6659    4.9857 H   0  0  0  0  0  0  0  0  0  0  0  0
    6.5080  -11.1106    3.5397 H   0  0  0  0  0  0  0  0  0  0  0  0
    3.0540   -6.0240   -1.2095 H   0  0  0  0  0  0  0  0  0  0  0  0
    1.6206   -5.4353   -2.0853 H   0  0  0  0  0  0  0  0  0  0  0  0
    1.5910   -3.2799   -3.0498 H   0  0  0  0  0  0  0  0  0  0  0  0
    2.8039   -1.2246   -3.6549 H   0  0  0  0  0  0  0  0  0  0  0  0
    4.9846   -0.7317   -2.6248 H   0  0  0  0  0  0  0  0  0  0  0  0
    5.9551   -2.2941   -0.9879 H   0  0  0  0  0  0  0  0  0  0  0  0
    0.0503   -2.6289    2.1200 H   0  0  0  0  0  0  0  0  0  0  0  0
    0.0211   -0.1667    2.1335 H   0  0  0  0  0  0  0  0  0  0  0  0
  1  2  1  0
  1 35  1  6
  1 36  1  0
  1 37  1  0
  2 34  2  0
  2  3  1  0
  3  4  2  0
  3 38  1  0
  4  5  1  0
  4 39  1  0
  5  6  1  0
  5 33  2  0
  6  7  2  0
  6  8  2  0
  6  9  1  6
  9 10  1  0
  9 25  1  0
 10 11  1  0
 10 40  1  6
 10 41  1  0
 11 12  2  0
 11 13  1  0
 13 14  1  0
 13 42  1  0
 14 15  1  6
 14 16  1  0
 14 17  1  0
 16 43  1  6
 16 44  1  0
 16 45  1  0
 17 18  1  0
 17 46  1  1
 17 47  1  0
 18 19  1  0
 18 48  1  6
 18 49  1  0
 19 24  2  0
 19 20  1  0
 20 21  2  0
 20 50  1  0
 21 22  1  0
 21 51  1  0
 22 23  2  0
 22 52  1  0
 23 24  1  0
 23 53  1  0
 24 54  1  0
 25 26  1  0
 25 55  1  1
 25 56  1  0
 26 31  2  0
 26 27  1  0
 27 28  2  0
 27 57  1  0
 28 29  1  0
 28 58  1  0
 29 30  2  0
 29 59  1  0
 30 31  1  0
 30 60  1  0
 31 32  1  0
 33 34  1  0
 33 61  1  0
 34 62  1  0
M  END
$$$$
