ZINC000097166176
     RDKit          3D

 37 38  0  0  1  0  0  0  0  0999 V2000
   -0.0187    1.5258    0.0104 C   0  0  1  0  0  0  0  0  0  0  0  0
    0.0021   -0.0041    0.0020 C   0  0  2  0  0  0  0  0  0  0  0  0
    0.6942   -0.5079   -1.2660 C   0  0  1  0  0  0  0  0  0  0  0  0
   -0.0063   -0.0260   -2.4146 O   0  0  0  0  0  0  0  0  0  0  0  0
   -1.4403   -0.5489    0.0684 C   0  0  1  0  0  0  0  0  0  0  0  0
   -1.6264   -0.8568    1.5777 C   0  0  1  0  0  0  0  0  0  0  0  0
   -0.2101   -1.3447    1.9725 C   0  0  1  0  0  0  0  0  0  0  0  0
    0.7115   -0.5010    1.1900 N   0  0  0  0  0  0  0  0  0  0  0  0
    2.2853   -0.1686    1.5837 S   0  0  1  0  0  0  0  0  0  0  0  0
    2.6139    1.0493    0.9296 O   0  0  0  0  0  0  0  0  0  0  0  0
    2.3944   -0.3502    2.9888 O   0  0  0  0  0  0  0  0  0  0  0  0
    3.2833   -1.4168    0.8417 C   0  0  0  0  0  0  0  0  0  0  0  0
    4.1885   -1.0809   -0.1470 C   0  0  0  0  0  0  0  0  0  0  0  0
    4.9717   -2.0603   -0.7294 C   0  0  0  0  0  0  0  0  0  0  0  0
    5.9586   -1.6933   -1.8075 C   0  0  1  0  0  0  0  0  0  0  0  0
    7.1919   -1.3826   -1.2247 F   0  0  0  0  0  0  0  0  0  0  0  0
    6.1154   -2.7730   -2.6833 F   0  0  0  0  0  0  0  0  0  0  0  0
    5.4846   -0.5837   -2.5155 F   0  0  0  0  0  0  0  0  0  0  0  0
    4.8502   -3.3757   -0.3227 C   0  0  0  0  0  0  0  0  0  0  0  0
    3.9451   -3.7130    0.6662 C   0  0  0  0  0  0  0  0  0  0  0  0
    3.1650   -2.7328    1.2529 C   0  0  0  0  0  0  0  0  0  0  0  0
    2.0282   -3.1555    2.4949 Cl  0  0  0  0  0  0  0  0  0  0  0  0
    1.0039    1.9031    0.0027 H   0  0  0  0  0  0  0  0  0  0  0  0
   -0.5459    1.8868   -0.8726 H   0  0  0  0  0  0  0  0  0  0  0  0
   -0.5289    1.8773    0.9072 H   0  0  0  0  0  0  0  0  0  0  0  0
    1.7216   -0.1443   -1.2881 H   0  0  0  0  0  0  0  0  0  0  0  0
    0.6943   -1.5979   -1.2713 H   0  0  0  0  0  0  0  0  0  0  0  0
    0.3779   -0.3073   -3.2562 H   0  0  0  0  0  0  0  0  0  0  0  0
   -2.1534    0.2064   -0.2619 H   0  0  0  0  0  0  0  0  0  0  0  0
   -1.5369   -1.4579   -0.5254 H   0  0  0  0  0  0  0  0  0  0  0  0
   -1.8974    0.0433    2.1295 H   0  0  0  0  0  0  0  0  0  0  0  0
   -2.3664   -1.6429    1.7277 H   0  0  0  0  0  0  0  0  0  0  0  0
   -0.0430   -1.2003    3.0398 H   0  0  0  0  0  0  0  0  0  0  0  0
   -0.0825   -2.3940    1.7062 H   0  0  0  0  0  0  0  0  0  0  0  0
    4.2839   -0.0533   -0.4652 H   0  0  0  0  0  0  0  0  0  0  0  0
    5.4622   -4.1403   -0.7780 H   0  0  0  0  0  0  0  0  0  0  0  0
    3.8503   -4.7408    0.9839 H   0  0  0  0  0  0  0  0  0  0  0  0
  1 23  1  6
  1 24  1  0
  1 25  1  0
  2  1  1  0
  2  8  1  1
  2  3  1  0
  2  5  1  0
  3  4  1  0
  3 26  1  6
  3 27  1  0
  4 28  1  0
  5  6  1  0
  5 29  1  6
  5 30  1  0
  6  7  1  0
  6 31  1  1
  6 32  1  0
  7  8  1  0
  7 33  1  1
  7 34  1  0
  9  8  1  6
  9 10  2  0
  9 11  2  0
  9 12  1  0
 12 21  2  0
 12 13  1  0
 13 14  2  0
 13 35  1  0
 14 15  1  0
 14 19  1  0
 15 16  1  1
 15 17  1  0
 15 18  1  0
 19 20  2  0
 19 36  1  0
 20 21  1  0
 20 37  1  0
 21 22  1  0
M  END
$$$$
