ZINC000085423431
     RDKit          3D

 33 34  0  0  0  0  0  0  0  0999 V2000
   -1.1527    2.3622    1.2456 O   0  0  0  0  0  0  0  0  0  0  0  0
   -0.3200    1.7525    0.2688 S   0  0  1  0  0  0  0  0  0  0  0  0
    0.0258    0.3744    0.2932 O   0  0  0  0  0  0  0  0  0  0  0  0
   -1.0857    2.0457   -1.2908 C   0  0  0  0  0  0  0  0  0  0  0  0
   -0.6377    3.0742   -2.0981 C   0  0  0  0  0  0  0  0  0  0  0  0
   -1.2385    3.3044   -3.3219 C   0  0  0  0  0  0  0  0  0  0  0  0
   -0.7504    4.4261   -4.2019 C   0  0  1  0  0  0  0  0  0  0  0  0
    0.2561    3.9501   -5.0490 F   0  0  0  0  0  0  0  0  0  0  0  0
   -1.8139    4.9134   -4.9692 F   0  0  0  0  0  0  0  0  0  0  0  0
   -0.2403    5.4562   -3.4044 F   0  0  0  0  0  0  0  0  0  0  0  0
   -2.2866    2.5053   -3.7383 C   0  0  0  0  0  0  0  0  0  0  0  0
   -2.7344    1.4762   -2.9310 C   0  0  0  0  0  0  0  0  0  0  0  0
   -2.1310    1.2434   -1.7095 C   0  0  0  0  0  0  0  0  0  0  0  0
   -2.6191    0.1217   -0.8295 C   0  0  1  0  0  0  0  0  0  0  0  0
   -3.7657   -0.4482   -1.3933 F   0  0  0  0  0  0  0  0  0  0  0  0
   -1.6208   -0.8521   -0.7185 F   0  0  0  0  0  0  0  0  0  0  0  0
   -2.9240    0.6239    0.4401 F   0  0  0  0  0  0  0  0  0  0  0  0
    1.1068    2.5930    0.2801 N   0  0  0  0  0  0  0  0  0  0  0  0
    2.3829    2.1224   -0.2781 C   0  0  1  0  0  0  0  0  0  0  0  0
    3.4318    3.2235   -0.0152 C   0  0  1  0  0  0  0  0  0  0  0  0
    2.8205    4.0085    1.1754 C   0  0  1  0  0  0  0  0  0  0  0  0
    1.3062    3.9396    0.8459 C   0  0  1  0  0  0  0  0  0  0  0  0
    0.1814    3.6984   -1.7728 H   0  0  0  0  0  0  0  0  0  0  0  0
   -2.7559    2.6850   -4.6943 H   0  0  0  0  0  0  0  0  0  0  0  0
   -3.5536    0.8520   -3.2563 H   0  0  0  0  0  0  0  0  0  0  0  0
    2.6845    1.1980    0.2144 H   0  0  0  0  0  0  0  0  0  0  0  0
    2.2799    1.9570   -1.3505 H   0  0  0  0  0  0  0  0  0  0  0  0
    4.3899    2.7848    0.2634 H   0  0  0  0  0  0  0  0  0  0  0  0
    3.5407    3.8684   -0.8871 H   0  0  0  0  0  0  0  0  0  0  0  0
    3.0406    3.5158    2.1224 H   0  0  0  0  0  0  0  0  0  0  0  0
    3.1703    5.0409    1.1834 H   0  0  0  0  0  0  0  0  0  0  0  0
    1.0412    4.7060    0.1175 H   0  0  0  0  0  0  0  0  0  0  0  0
    0.7147    4.0573    1.7539 H   0  0  0  0  0  0  0  0  0  0  0  0
  1  2  2  0
  2  3  2  0
  2  4  1  0
  2 18  1  6
  4 13  2  0
  4  5  1  0
  5  6  2  0
  5 23  1  0
  6  7  1  0
  6 11  1  0
  7  8  1  6
  7  9  1  0
  7 10  1  0
 11 12  2  0
 11 24  1  0
 12 13  1  0
 12 25  1  0
 13 14  1  0
 14 15  1  6
 14 16  1  0
 14 17  1  0
 18 22  1  0
 18 19  1  0
 19 20  1  0
 19 26  1  1
 19 27  1  0
 20 21  1  0
 20 28  1  1
 20 29  1  0
 21 22  1  0
 21 30  1  1
 21 31  1  0
 22 32  1  6
 22 33  1  0
M  END
$$$$
