ZINC000000676569
     RDKit          3D

 53 54  0  0  0  0  0  0  0  0999 V2000
    4.3384   -2.6770   -3.4365 C   0  0  1  0  0  0  0  0  0  0  0  0
    5.3397   -1.6618   -2.8818 C   0  0  1  0  0  0  0  0  0  0  0  0
    5.7426   -2.0645   -1.4866 C   0  0  0  0  0  0  0  0  0  0  0  0
    5.0201   -1.6068   -0.4006 C   0  0  0  0  0  0  0  0  0  0  0  0
    5.3872   -1.9744    0.8799 C   0  0  0  0  0  0  0  0  0  0  0  0
    6.4817   -2.8033    1.0755 C   0  0  0  0  0  0  0  0  0  0  0  0
    6.8443   -3.1666    2.3340 O   0  0  0  0  0  0  0  0  0  0  0  0
    6.0531   -2.6575    3.4096 C   0  0  1  0  0  0  0  0  0  0  0  0
    6.6013   -3.1626    4.7193 C   0  0  0  0  0  0  0  0  0  0  0  0
    7.5739   -3.8872    4.7305 O   0  0  0  0  0  0  0  0  0  0  0  0
    6.0109   -2.8091    5.8781 N   0  0  0  0  0  0  0  0  0  0  0  0
    6.4590   -3.3543    7.0864 C   0  0  0  0  0  0  0  0  0  0  0  0
    5.5539   -3.6329    8.1022 C   0  0  0  0  0  0  0  0  0  0  0  0
    5.9993   -4.1709    9.2936 C   0  0  0  0  0  0  0  0  0  0  0  0
    7.3450   -4.4318    9.4758 C   0  0  0  0  0  0  0  0  0  0  0  0
    7.9093   -5.1178   10.9976 S   0  0  1  0  0  0  0  0  0  0  0  0
    9.2809   -4.7645   11.1128 O   0  0  0  0  0  0  0  0  0  0  0  0
    6.9351   -4.7805   11.9755 O   0  0  0  0  0  0  0  0  0  0  0  0
    7.8625   -6.7656   10.8398 N   0  0  0  0  0  0  0  0  0  0  0  0
    9.0325   -7.4863   10.3321 C   0  0  1  0  0  0  0  0  0  0  0  0
    9.8722   -7.9885   11.5084 C   0  0  1  0  0  0  0  0  0  0  0  0
    6.6511   -7.5025   11.2079 C   0  0  1  0  0  0  0  0  0  0  0  0
    5.7909   -7.7245    9.9622 C   0  0  1  0  0  0  0  0  0  0  0  0
    8.2487   -4.1560    8.4662 C   0  0  0  0  0  0  0  0  0  0  0  0
    7.8089   -3.6233    7.2703 C   0  0  0  0  0  0  0  0  0  0  0  0
    7.2059   -3.2619   -0.0166 C   0  0  0  0  0  0  0  0  0  0  0  0
    8.6987   -4.3929    0.2450 Br  0  0  0  0  0  0  0  0  0  0  0  0
    6.8311   -2.8958   -1.2954 C   0  0  0  0  0  0  0  0  0  0  0  0
    3.4561   -2.7038   -2.7970 H   0  0  0  0  0  0  0  0  0  0  0  0
    4.0469   -2.3857   -4.4456 H   0  0  0  0  0  0  0  0  0  0  0  0
    4.7988   -3.6647   -3.4621 H   0  0  0  0  0  0  0  0  0  0  0  0
    6.2220   -1.6350   -3.5213 H   0  0  0  0  0  0  0  0  0  0  0  0
    4.8793   -0.6742   -2.8562 H   0  0  0  0  0  0  0  0  0  0  0  0
    4.1681   -0.9610   -0.5530 H   0  0  0  0  0  0  0  0  0  0  0  0
    4.8224   -1.6161    1.7279 H   0  0  0  0  0  0  0  0  0  0  0  0
    6.0835   -1.5680    3.3990 H   0  0  0  0  0  0  0  0  0  0  0  0
    5.0227   -2.9934    3.2933 H   0  0  0  0  0  0  0  0  0  0  0  0
    5.2753   -2.1768    5.8745 H   0  0  0  0  0  0  0  0  0  0  0  0
    4.5028   -3.4286    7.9607 H   0  0  0  0  0  0  0  0  0  0  0  0
    5.2959   -4.3878   10.0839 H   0  0  0  0  0  0  0  0  0  0  0  0
    8.7043   -8.3347    9.7316 H   0  0  0  0  0  0  0  0  0  0  0  0
    9.6331   -6.8164    9.7168 H   0  0  0  0  0  0  0  0  0  0  0  0
   10.7427   -8.5248   11.1307 H   0  0  0  0  0  0  0  0  0  0  0  0
   10.2004   -7.1401   12.1089 H   0  0  0  0  0  0  0  0  0  0  0  0
    9.2715   -8.6584   12.1237 H   0  0  0  0  0  0  0  0  0  0  0  0
    6.9278   -8.4665   11.6348 H   0  0  0  0  0  0  0  0  0  0  0  0
    6.0858   -6.9288   11.9423 H   0  0  0  0  0  0  0  0  0  0  0  0
    4.8895   -8.2728   10.2361 H   0  0  0  0  0  0  0  0  0  0  0  0
    5.5141   -6.7605    9.5353 H   0  0  0  0  0  0  0  0  0  0  0  0
    6.3561   -8.2983    9.2279 H   0  0  0  0  0  0  0  0  0  0  0  0
    9.2991   -4.3609    8.6116 H   0  0  0  0  0  0  0  0  0  0  0  0
    8.5152   -3.4080    6.4821 H   0  0  0  0  0  0  0  0  0  0  0  0
    7.3937   -3.2524   -2.1455 H   0  0  0  0  0  0  0  0  0  0  0  0
  1  2  1  0
  1 29  1  1
  1 30  1  0
  1 31  1  0
  2  3  1  0
  2 32  1  6
  2 33  1  0
  3 28  2  0
  3  4  1  0
  4  5  2  0
  4 34  1  0
  5  6  1  0
  5 35  1  0
  6  7  1  0
  6 26  2  0
  7  8  1  0
  8  9  1  0
  8 36  1  1
  8 37  1  0
  9 10  2  0
  9 11  1  0
 11 12  1  0
 11 38  1  0
 12 25  2  0
 12 13  1  0
 13 14  2  0
 13 39  1  0
 14 15  1  0
 14 40  1  0
 15 16  1  0
 15 24  2  0
 16 17  2  0
 16 18  2  0
 16 19  1  6
 19 20  1  0
 19 22  1  0
 20 21  1  0
 20 41  1  6
 20 42  1  0
 21 43  1  6
 21 44  1  0
 21 45  1  0
 22 23  1  0
 22 46  1  1
 22 47  1  0
 23 48  1  1
 23 49  1  0
 23 50  1  0
 24 25  1  0
 24 51  1  0
 25 52  1  0
 26 27  1  0
 26 28  1  0
 28 53  1  0
M  END
$$$$
