ZINC000096245397
     RDKit          3D

 50 53  0  0  1  0  0  0  0  0999 V2000
    0.0021   -0.0041    0.0020 O   0  0  0  0  0  0  0  0  0  0  0  0
   -0.0172    1.4168    0.0098 S   0  0  1  0  0  0  0  0  0  0  0  0
    1.1617    2.2101    0.0028 O   0  0  0  0  0  0  0  0  0  0  0  0
   -0.9567    1.9094   -1.3970 C   0  0  0  0  0  0  0  0  0  0  0  0
   -1.8848    1.0442   -1.9458 C   0  0  0  0  0  0  0  0  0  0  0  0
   -2.6219    1.4307   -3.0496 C   0  0  0  0  0  0  0  0  0  0  0  0
   -2.4313    2.6825   -3.6042 C   0  0  0  0  0  0  0  0  0  0  0  0
   -1.5039    3.5480   -3.0548 C   0  0  0  0  0  0  0  0  0  0  0  0
   -0.7699    3.1631   -1.9485 C   0  0  0  0  0  0  0  0  0  0  0  0
   -0.8748    1.8654    1.3536 N   0  0  0  0  0  0  0  0  0  0  0  0
   -0.7772    3.1761    2.0671 C   0  0  1  0  0  0  0  0  0  0  0  0
   -1.6240    2.9988    3.2895 C   0  0  1  0  0  0  0  0  0  0  0  0
   -1.0686    2.4135    4.0224 H   0  0  0  0  0  0  0  0  0  0  0  0
   -2.4459    4.0221    4.0077 C   0  0  1  0  0  0  0  0  0  0  0  0
   -3.6135    3.2558    4.5480 N   0  0  2  0  0  0  0  0  0  0  0  0
   -4.4746    3.6930    4.2556 H   0  0  0  0  0  0  0  0  0  0  0  0
   -3.5471    3.2154    6.0149 C   0  0  1  0  0  0  0  0  0  0  0  0
   -4.6547    2.3410    6.5440 C   0  0  0  0  0  0  0  0  0  0  0  0
   -5.8878    2.8910    6.8403 C   0  0  0  0  0  0  0  0  0  0  0  0
   -6.9037    2.0890    7.3256 C   0  0  0  0  0  0  0  0  0  0  0  0
   -6.6866    0.7369    7.5142 C   0  0  0  0  0  0  0  0  0  0  0  0
   -7.7940   -0.1374    8.0437 C   0  0  1  0  0  0  0  0  0  0  0  0
   -8.5396   -0.6447    6.9741 F   0  0  0  0  0  0  0  0  0  0  0  0
   -7.2435   -1.1971    8.7725 F   0  0  0  0  0  0  0  0  0  0  0  0
   -8.6270    0.6180    8.8761 F   0  0  0  0  0  0  0  0  0  0  0  0
   -5.4539    0.1866    7.2166 C   0  0  0  0  0  0  0  0  0  0  0  0
   -4.4392    0.9880    6.7277 C   0  0  0  0  0  0  0  0  0  0  0  0
   -3.5369    1.8624    3.9954 C   0  0  1  0  0  0  0  0  0  0  0  0
   -2.7786    2.0870    2.7025 C   0  0  2  0  0  0  0  0  0  0  0  0
   -3.3953    2.5973    1.9626 H   0  0  0  0  0  0  0  0  0  0  0  0
   -1.8939    1.0345    2.0714 C   0  0  1  0  0  0  0  0  0  0  0  0
   -2.0336    0.0662   -1.5125 H   0  0  0  0  0  0  0  0  0  0  0  0
   -3.3464    0.7545   -3.4788 H   0  0  0  0  0  0  0  0  0  0  0  0
   -3.0067    2.9841   -4.4670 H   0  0  0  0  0  0  0  0  0  0  0  0
   -1.3548    4.5258   -3.4884 H   0  0  0  0  0  0  0  0  0  0  0  0
   -0.0453    3.8393   -1.5193 H   0  0  0  0  0  0  0  0  0  0  0  0
    0.2562    3.3817    2.3463 H   0  0  0  0  0  0  0  0  0  0  0  0
   -1.1712    3.9791    1.4441 H   0  0  0  0  0  0  0  0  0  0  0  0
   -1.8734    4.4667    4.8217 H   0  0  0  0  0  0  0  0  0  0  0  0
   -2.7845    4.7924    3.3148 H   0  0  0  0  0  0  0  0  0  0  0  0
   -2.5842    2.8089    6.3240 H   0  0  0  0  0  0  0  0  0  0  0  0
   -3.6598    4.2244    6.4117 H   0  0  0  0  0  0  0  0  0  0  0  0
   -6.0574    3.9474    6.6929 H   0  0  0  0  0  0  0  0  0  0  0  0
   -7.8669    2.5188    7.5577 H   0  0  0  0  0  0  0  0  0  0  0  0
   -5.2844   -0.8698    7.3636 H   0  0  0  0  0  0  0  0  0  0  0  0
   -3.4761    0.5581    6.4952 H   0  0  0  0  0  0  0  0  0  0  0  0
   -2.9924    1.2057    4.6739 H   0  0  0  0  0  0  0  0  0  0  0  0
   -4.5335    1.4708    3.7918 H   0  0  0  0  0  0  0  0  0  0  0  0
   -2.4609    0.4160    1.3756 H   0  0  0  0  0  0  0  0  0  0  0  0
   -1.4150    0.4205    2.8341 H   0  0  0  0  0  0  0  0  0  0  0  0
  1  2  2  0
  2  3  2  0
  2  4  1  0
  2 10  1  1
  4  9  2  0
  4  5  1  0
  5  6  2  0
  5 32  1  0
  6  7  1  0
  6 33  1  0
  7  8  2  0
  7 34  1  0
  8  9  1  0
  8 35  1  0
  9 36  1  0
 10 31  1  0
 10 11  1  0
 11 12  1  0
 11 37  1  1
 11 38  1  0
 12 13  1  1
 12 29  1  0
 12 14  1  0
 14 15  1  0
 14 39  1  1
 14 40  1  0
 15 16  1  1
 15 17  1  0
 15 28  1  0
 17 18  1  0
 17 41  1  6
 17 42  1  0
 18 27  2  0
 18 19  1  0
 19 20  2  0
 19 43  1  0
 20 21  1  0
 20 44  1  0
 21 22  1  0
 21 26  2  0
 22 23  1  6
 22 24  1  0
 22 25  1  0
 26 27  1  0
 26 45  1  0
 27 46  1  0
 28 29  1  0
 28 47  1  1
 28 48  1  0
 29 30  1  6
 29 31  1  0
 31 49  1  6
 31 50  1  0
M  CHG  1  15   1
M  END
$$$$
