ZINC000028207788
     RDKit          3D

 55 55  0  0  1  0  0  0  0  0999 V2000
   -0.0187    1.5258    0.0104 C   0  0  1  0  0  0  0  0  0  0  0  0
    0.0021   -0.0041    0.0020 C   0  0  1  0  0  0  0  0  0  0  0  0
    0.7182   -0.4975   -1.2568 C   0  0  1  0  0  0  0  0  0  0  0  0
    0.7390   -2.0273   -1.2652 C   0  0  1  0  0  0  0  0  0  0  0  0
   -0.2789   -2.4050   -1.1679 H   0  0  0  0  0  0  0  0  0  0  0  0
    1.3429   -2.5219   -2.5810 C   0  0  1  0  0  0  0  0  0  0  0  0
    1.5485   -2.5109   -0.1440 N   0  0  0  0  0  0  0  0  0  0  0  0
    1.3281   -3.7388    0.3660 C   0  0  0  0  0  0  0  0  0  0  0  0
    0.4596   -4.4434   -0.1031 O   0  0  0  0  0  0  0  0  0  0  0  0
    2.1609   -4.2362    1.5193 C   0  0  1  0  0  0  0  0  0  0  0  0
    1.7399   -5.5540    1.8774 O   0  0  0  0  0  0  0  0  0  0  0  0
    2.3939   -6.1521    2.9076 C   0  0  0  0  0  0  0  0  0  0  0  0
    3.4159   -5.4823    3.5641 C   0  0  0  0  0  0  0  0  0  0  0  0
    4.0790   -6.0924    4.6115 C   0  0  0  0  0  0  0  0  0  0  0  0
    3.7251   -7.3695    5.0051 C   0  0  0  0  0  0  0  0  0  0  0  0
    4.5731   -8.1449    6.3408 S   0  0  1  0  0  0  0  0  0  0  0  0
    4.4118   -9.5451    6.1597 O   0  0  0  0  0  0  0  0  0  0  0  0
    5.8432   -7.5140    6.4300 O   0  0  0  0  0  0  0  0  0  0  0  0
    3.7593   -7.7563    7.7297 N   0  0  0  0  0  0  0  0  0  0  0  0
    2.6727   -8.6153    8.2068 C   0  0  1  0  0  0  0  0  0  0  0  0
    3.2199   -9.6044    9.2380 C   0  0  1  0  0  0  0  0  0  0  0  0
    4.1259   -6.5534    8.4813 C   0  0  1  0  0  0  0  0  0  0  0  0
    3.2211   -5.3936    8.0605 C   0  0  1  0  0  0  0  0  0  0  0  0
    2.7063   -8.0392    4.3524 C   0  0  0  0  0  0  0  0  0  0  0  0
    2.0368   -7.4317    3.3082 C   0  0  0  0  0  0  0  0  0  0  0  0
    0.9264   -8.1619    2.5978 C   0  0  1  0  0  0  0  0  0  0  0  0
    1.0039    1.9031    0.0027 H   0  0  0  0  0  0  0  0  0  0  0  0
   -0.5459    1.8868   -0.8726 H   0  0  0  0  0  0  0  0  0  0  0  0
   -0.5289    1.8773    0.9072 H   0  0  0  0  0  0  0  0  0  0  0  0
    0.5293   -0.3651    0.8851 H   0  0  0  0  0  0  0  0  0  0  0  0
   -1.0205   -0.3814    0.0098 H   0  0  0  0  0  0  0  0  0  0  0  0
    0.1910   -0.1364   -2.1398 H   0  0  0  0  0  0  0  0  0  0  0  0
    1.7408   -0.1202   -1.2645 H   0  0  0  0  0  0  0  0  0  0  0  0
    1.3577   -3.6118   -2.5870 H   0  0  0  0  0  0  0  0  0  0  0  0
    0.7406   -2.1622   -3.4152 H   0  0  0  0  0  0  0  0  0  0  0  0
    2.3608   -2.1442   -2.6783 H   0  0  0  0  0  0  0  0  0  0  0  0
    2.2431   -1.9473    0.2312 H   0  0  0  0  0  0  0  0  0  0  0  0
    3.2108   -4.2570    1.2271 H   0  0  0  0  0  0  0  0  0  0  0  0
    2.0345   -3.5700    2.3727 H   0  0  0  0  0  0  0  0  0  0  0  0
    3.6932   -4.4848    3.2566 H   0  0  0  0  0  0  0  0  0  0  0  0
    4.8747   -5.5712    5.1230 H   0  0  0  0  0  0  0  0  0  0  0  0
    1.8993   -8.0008    8.6675 H   0  0  0  0  0  0  0  0  0  0  0  0
    2.2480   -9.1644    7.3664 H   0  0  0  0  0  0  0  0  0  0  0  0
    2.4114  -10.2435    9.5930 H   0  0  0  0  0  0  0  0  0  0  0  0
    3.9933  -10.2189    8.7773 H   0  0  0  0  0  0  0  0  0  0  0  0
    3.6446   -9.0553   10.0783 H   0  0  0  0  0  0  0  0  0  0  0  0
    4.0043   -6.7405    9.5482 H   0  0  0  0  0  0  0  0  0  0  0  0
    5.1649   -6.2976    8.2734 H   0  0  0  0  0  0  0  0  0  0  0  0
    3.3428   -5.2065    6.9935 H   0  0  0  0  0  0  0  0  0  0  0  0
    2.1822   -5.6493    8.2684 H   0  0  0  0  0  0  0  0  0  0  0  0
    3.4939   -4.4986    8.6197 H   0  0  0  0  0  0  0  0  0  0  0  0
    2.4314   -9.0367    4.6620 H   0  0  0  0  0  0  0  0  0  0  0  0
   -0.0223   -7.9480    3.0900 H   0  0  0  0  0  0  0  0  0  0  0  0
    0.8799   -7.8316    1.5601 H   0  0  0  0  0  0  0  0  0  0  0  0
    1.1183   -9.2344    2.6294 H   0  0  0  0  0  0  0  0  0  0  0  0
  1  2  1  0
  1 27  1  6
  1 28  1  0
  1 29  1  0
  2  3  1  0
  2 30  1  1
  2 31  1  0
  3  4  1  0
  3 32  1  6
  3 33  1  0
  4  5  1  1
  4  6  1  0
  4  7  1  0
  6 34  1  1
  6 35  1  0
  6 36  1  0
  7  8  1  0
  7 37  1  0
  8  9  2  0
  8 10  1  0
 10 11  1  0
 10 38  1  6
 10 39  1  0
 11 12  1  0
 12 25  2  0
 12 13  1  0
 13 14  2  0
 13 40  1  0
 14 15  1  0
 14 41  1  0
 15 16  1  0
 15 24  2  0
 16 17  2  0
 16 18  2  0
 16 19  1  1
 19 20  1  0
 19 22  1  0
 20 21  1  0
 20 42  1  1
 20 43  1  0
 21 44  1  1
 21 45  1  0
 21 46  1  0
 22 23  1  0
 22 47  1  1
 22 48  1  0
 23 49  1  6
 23 50  1  0
 23 51  1  0
 24 25  1  0
 24 52  1  0
 25 26  1  0
 26 53  1  1
 26 54  1  0
 26 55  1  0
M  END
$$$$
