ZINC000237692985
     RDKit          3D

 35 36  0  0  1  0  0  0  0  0999 V2000
   -0.0187    1.5258    0.0104 C   0  0  1  0  0  0  0  0  0  0  0  0
    0.0021   -0.0041    0.0020 C   0  0  1  0  0  0  0  0  0  0  0  0
   -1.0204   -0.3817    0.0098 H   0  0  0  0  0  0  0  0  0  0  0  0
    0.7204   -0.4988   -1.2579 C   0  0  1  0  0  0  0  0  0  0  0  0
    0.8606   -1.9604   -1.1723 N   0  0  0  0  0  0  0  0  0  0  0  0
    0.3779   -2.9351   -2.4210 S   0  0  1  0  0  0  0  0  0  0  0  0
    0.1205   -4.2133   -1.8559 O   0  0  0  0  0  0  0  0  0  0  0  0
   -0.5928   -2.1990   -3.1526 O   0  0  0  0  0  0  0  0  0  0  0  0
    1.7625   -3.1345   -3.4923 C   0  0  0  0  0  0  0  0  0  0  0  0
    2.3341   -4.3815   -3.6583 C   0  0  0  0  0  0  0  0  0  0  0  0
    3.4207   -4.5382   -4.4989 C   0  0  0  0  0  0  0  0  0  0  0  0
    4.0432   -5.8987   -4.6790 C   0  0  1  0  0  0  0  0  0  0  0  0
    3.4207   -6.5591   -5.7437 F   0  0  0  0  0  0  0  0  0  0  0  0
    5.4075   -5.7547   -4.9532 F   0  0  0  0  0  0  0  0  0  0  0  0
    3.8792   -6.6454   -3.5073 F   0  0  0  0  0  0  0  0  0  0  0  0
    3.9361   -3.4480   -5.1745 C   0  0  0  0  0  0  0  0  0  0  0  0
    3.3663   -2.1996   -5.0097 C   0  0  0  0  0  0  0  0  0  0  0  0
    2.2748   -2.0425   -4.1727 C   0  0  0  0  0  0  0  0  0  0  0  0
    1.7170   -0.8227   -4.0109 F   0  0  0  0  0  0  0  0  0  0  0  0
    1.4413   -2.5333    0.0515 C   0  0  1  0  0  0  0  0  0  0  0  0
    0.6946   -1.9584    1.2599 C   0  0  1  0  0  0  0  0  0  0  0  0
    0.7136   -0.4912    1.1913 N   0  0  0  0  0  0  0  0  0  0  0  0
    1.0039    1.9031    0.0027 H   0  0  0  0  0  0  0  0  0  0  0  0
   -0.5459    1.8868   -0.8726 H   0  0  0  0  0  0  0  0  0  0  0  0
   -0.5289    1.8773    0.9072 H   0  0  0  0  0  0  0  0  0  0  0  0
    0.1348   -0.2381   -2.1395 H   0  0  0  0  0  0  0  0  0  0  0  0
    1.7069   -0.0394   -1.3212 H   0  0  0  0  0  0  0  0  0  0  0  0
    1.9322   -5.2340   -3.1309 H   0  0  0  0  0  0  0  0  0  0  0  0
    4.7846   -3.5717   -5.8311 H   0  0  0  0  0  0  0  0  0  0  0  0
    3.7696   -1.3478   -5.5371 H   0  0  0  0  0  0  0  0  0  0  0  0
    1.3323   -3.6177    0.0357 H   0  0  0  0  0  0  0  0  0  0  0  0
    2.4971   -2.2695    0.1141 H   0  0  0  0  0  0  0  0  0  0  0  0
   -0.3374   -2.3093    1.2504 H   0  0  0  0  0  0  0  0  0  0  0  0
    1.1820   -2.2859    2.1782 H   0  0  0  0  0  0  0  0  0  0  0  0
    1.6593   -0.1403    1.2152 H   0  0  0  0  0  0  0  0  0  0  0  0
  1  2  1  0
  1 23  1  6
  1 24  1  0
  1 25  1  0
  2  3  1  1
  2 22  1  0
  2  4  1  0
  4  5  1  0
  4 26  1  6
  4 27  1  0
  6  5  1  1
  5 20  1  0
  6  7  2  0
  6  8  2  0
  6  9  1  0
  9 18  2  0
  9 10  1  0
 10 11  2  0
 10 28  1  0
 11 12  1  0
 11 16  1  0
 12 13  1  6
 12 14  1  0
 12 15  1  0
 16 17  2  0
 16 29  1  0
 17 18  1  0
 17 30  1  0
 18 19  1  0
 20 21  1  0
 20 31  1  6
 20 32  1  0
 21 22  1  0
 21 33  1  1
 21 34  1  0
 22 35  1  0
M  END
$$$$
