ZINC000012919446
     RDKit          3D

 47 49  0  0  1  0  0  0  0  0999 V2000
    0.0912    0.2585   -0.5130 O   0  0  0  0  0  0  0  0  0  0  0  0
   -0.0807    1.3338    0.0207 C   0  0  0  0  0  0  0  0  0  0  0  0
    0.9418    1.9437    0.6524 N   0  0  0  0  0  0  0  0  0  0  0  0
    2.2608    1.3077    0.6943 C   0  0  1  0  0  0  0  0  0  0  0  0
    3.2192    2.1882    1.4542 C   0  0  0  0  0  0  0  0  0  0  0  0
    3.9537    3.1492    0.7850 C   0  0  0  0  0  0  0  0  0  0  0  0
    4.8328    3.9569    1.4820 C   0  0  0  0  0  0  0  0  0  0  0  0
    4.9770    3.8038    2.8483 C   0  0  0  0  0  0  0  0  0  0  0  0
    5.9357    4.6840    3.6080 C   0  0  1  0  0  0  0  0  0  0  0  0
    5.2682    5.8339    4.0432 F   0  0  0  0  0  0  0  0  0  0  0  0
    6.4325    3.9864    4.7143 F   0  0  0  0  0  0  0  0  0  0  0  0
    6.9964    5.0488    2.7720 F   0  0  0  0  0  0  0  0  0  0  0  0
    4.2414    2.8437    3.5177 C   0  0  0  0  0  0  0  0  0  0  0  0
    3.3595    2.0386    2.8212 C   0  0  0  0  0  0  0  0  0  0  0  0
   -1.4360    1.9910   -0.0277 C   0  0  1  0  0  0  0  0  0  0  0  0
   -1.5944    2.5806    0.8753 H   0  0  0  0  0  0  0  0  0  0  0  0
   -1.5348    2.8991   -1.2715 C   0  0  1  0  0  0  0  0  0  0  0  0
   -2.2651    1.9983   -2.3023 C   0  0  1  0  0  0  0  0  0  0  0  0
   -3.2405    1.2115   -1.3918 C   0  0  1  0  0  0  0  0  0  0  0  0
   -2.4842    0.9670   -0.1465 N   0  0  0  0  0  0  0  0  0  0  0  0
   -2.7688   -0.2581    0.9308 S   0  0  1  0  0  0  0  0  0  0  0  0
   -3.3893   -1.3034    0.1950 O   0  0  0  0  0  0  0  0  0  0  0  0
   -1.5656   -0.4334    1.6662 O   0  0  0  0  0  0  0  0  0  0  0  0
   -3.9724    0.3252    2.0779 C   0  0  0  0  0  0  0  0  0  0  0  0
   -3.5737    1.0254    3.2013 C   0  0  0  0  0  0  0  0  0  0  0  0
   -4.5168    1.4833    4.1016 C   0  0  0  0  0  0  0  0  0  0  0  0
   -5.8615    1.2411    3.8780 C   0  0  0  0  0  0  0  0  0  0  0  0
   -6.7844    1.6888    4.7573 F   0  0  0  0  0  0  0  0  0  0  0  0
   -6.2598    0.5402    2.7523 C   0  0  0  0  0  0  0  0  0  0  0  0
   -5.3152    0.0874    1.8509 C   0  0  0  0  0  0  0  0  0  0  0  0
    0.8043    2.8038    1.0793 H   0  0  0  0  0  0  0  0  0  0  0  0
    2.1826    0.3413    1.1923 H   0  0  0  0  0  0  0  0  0  0  0  0
    2.6274    1.1641   -0.3221 H   0  0  0  0  0  0  0  0  0  0  0  0
    3.8411    3.2688   -0.2824 H   0  0  0  0  0  0  0  0  0  0  0  0
    5.4072    4.7072    0.9591 H   0  0  0  0  0  0  0  0  0  0  0  0
    4.3538    2.7244    4.5851 H   0  0  0  0  0  0  0  0  0  0  0  0
    2.7849    1.2885    3.3442 H   0  0  0  0  0  0  0  0  0  0  0  0
   -2.1234    3.7901   -1.0527 H   0  0  0  0  0  0  0  0  0  0  0  0
   -0.5421    3.1701   -1.6310 H   0  0  0  0  0  0  0  0  0  0  0  0
   -2.8093    2.5997   -3.0304 H   0  0  0  0  0  0  0  0  0  0  0  0
   -1.5653    1.3258   -2.7984 H   0  0  0  0  0  0  0  0  0  0  0  0
   -4.1292    1.8073   -1.1835 H   0  0  0  0  0  0  0  0  0  0  0  0
   -3.5174    0.2666   -1.8595 H   0  0  0  0  0  0  0  0  0  0  0  0
   -2.5247    1.2142    3.3755 H   0  0  0  0  0  0  0  0  0  0  0  0
   -4.2049    2.0297    4.9795 H   0  0  0  0  0  0  0  0  0  0  0  0
   -7.3084    0.3504    2.5770 H   0  0  0  0  0  0  0  0  0  0  0  0
   -5.6256   -0.4591    0.9726 H   0  0  0  0  0  0  0  0  0  0  0  0
  1  2  2  0
  2  3  1  0
  2 15  1  0
  3  4  1  0
  3 31  1  0
  4  5  1  0
  4 32  1  1
  4 33  1  0
  5 14  2  0
  5  6  1  0
  6  7  2  0
  6 34  1  0
  7  8  1  0
  7 35  1  0
  8  9  1  0
  8 13  2  0
  9 10  1  1
  9 11  1  0
  9 12  1  0
 13 14  1  0
 13 36  1  0
 14 37  1  0
 15 16  1  1
 15 20  1  0
 15 17  1  0
 17 18  1  0
 17 38  1  1
 17 39  1  0
 18 19  1  0
 18 40  1  6
 18 41  1  0
 19 20  1  0
 19 42  1  1
 19 43  1  0
 21 20  1  6
 21 22  2  0
 21 23  2  0
 21 24  1  0
 24 30  2  0
 24 25  1  0
 25 26  2  0
 25 44  1  0
 26 27  1  0
 26 45  1  0
 27 28  1  0
 27 29  2  0
 29 30  1  0
 29 46  1  0
 30 47  1  0
M  END
$$$$
