ZINC000112511461
     RDKit          3D

 42 43  0  0  1  0  0  0  0  0999 V2000
   -0.0187    1.5258    0.0104 C   0  0  1  0  0  0  0  0  0  0  0  0
    0.0021   -0.0041    0.0020 C   0  0  2  0  0  0  0  0  0  0  0  0
   -1.0205   -0.3814    0.0098 H   0  0  0  0  0  0  0  0  0  0  0  0
    0.7126   -0.4907    1.1921 N   0  0  1  0  0  0  0  0  0  0  0  0
    0.2403   -0.1653    2.0223 H   0  0  0  0  0  0  0  0  0  0  0  0
    0.7262   -1.4996    1.1866 H   0  0  0  0  0  0  0  0  0  0  0  0
    1.6592   -0.1414    1.1850 H   0  0  0  0  0  0  0  0  0  0  0  0
    0.7182   -0.4975   -1.2568 C   0  0  1  0  0  0  0  0  0  0  0  0
    0.2447   -0.0646   -2.1380 H   0  0  0  0  0  0  0  0  0  0  0  0
    2.1882   -0.0746   -1.2071 C   0  0  1  0  0  0  0  0  0  0  0  0
    2.8978   -0.5392   -2.4810 C   0  0  1  0  0  0  0  0  0  0  0  0
    2.8369   -2.0676   -2.5661 C   0  0  1  0  0  0  0  0  0  0  0  0
    1.4334   -2.4912   -2.4684 N   0  0  0  0  0  0  0  0  0  0  0  0
    0.7669   -3.4753   -3.6215 S   0  0  1  0  0  0  0  0  0  0  0  0
   -0.6361   -3.2550   -3.5748 O   0  0  0  0  0  0  0  0  0  0  0  0
    1.5430   -3.2971   -4.7985 O   0  0  0  0  0  0  0  0  0  0  0  0
    1.0269   -5.1386   -3.1012 C   0  0  0  0  0  0  0  0  0  0  0  0
    2.1753   -5.8093   -3.4785 C   0  0  0  0  0  0  0  0  0  0  0  0
    2.3792   -7.1142   -3.0704 C   0  0  0  0  0  0  0  0  0  0  0  0
    1.4351   -7.7482   -2.2846 C   0  0  0  0  0  0  0  0  0  0  0  0
    1.6572   -9.1709   -1.8400 C   0  0  1  0  0  0  0  0  0  0  0  0
    2.3373   -9.1766   -0.6175 F   0  0  0  0  0  0  0  0  0  0  0  0
    0.4222   -9.8107   -1.6897 F   0  0  0  0  0  0  0  0  0  0  0  0
    2.4184   -9.8460   -2.8002 F   0  0  0  0  0  0  0  0  0  0  0  0
    0.2874   -7.0770   -1.9061 C   0  0  0  0  0  0  0  0  0  0  0  0
    0.0852   -5.7708   -2.3111 C   0  0  0  0  0  0  0  0  0  0  0  0
    0.6320   -2.0253   -1.3284 C   0  0  1  0  0  0  0  0  0  0  0  0
    1.0039    1.9031    0.0027 H   0  0  0  0  0  0  0  0  0  0  0  0
   -0.5459    1.8868   -0.8726 H   0  0  0  0  0  0  0  0  0  0  0  0
   -0.5289    1.8773    0.9072 H   0  0  0  0  0  0  0  0  0  0  0  0
    2.2514    1.0109   -1.1316 H   0  0  0  0  0  0  0  0  0  0  0  0
    2.6672   -0.5274   -0.3389 H   0  0  0  0  0  0  0  0  0  0  0  0
    2.4039   -0.1065   -3.3510 H   0  0  0  0  0  0  0  0  0  0  0  0
    3.9389   -0.2174   -2.4555 H   0  0  0  0  0  0  0  0  0  0  0  0
    3.2527   -2.3974   -3.5182 H   0  0  0  0  0  0  0  0  0  0  0  0
    3.4077   -2.5023   -1.7455 H   0  0  0  0  0  0  0  0  0  0  0  0
    2.9129   -5.3140   -4.0925 H   0  0  0  0  0  0  0  0  0  0  0  0
    3.2761   -7.6384   -3.3658 H   0  0  0  0  0  0  0  0  0  0  0  0
   -0.4501   -7.5722   -1.2919 H   0  0  0  0  0  0  0  0  0  0  0  0
   -0.8114   -5.2464   -2.0154 H   0  0  0  0  0  0  0  0  0  0  0  0
    1.0227   -2.4562   -0.4066 H   0  0  0  0  0  0  0  0  0  0  0  0
   -0.4065   -2.3275   -1.4640 H   0  0  0  0  0  0  0  0  0  0  0  0
  1  2  1  0
  1 28  1  6
  1 29  1  0
  1 30  1  0
  2  3  1  1
  2  4  1  0
  2  8  1  0
  4  5  1  1
  4  6  1  0
  4  7  1  0
  8  9  1  6
  8 27  1  0
  8 10  1  0
 10 11  1  0
 10 31  1  1
 10 32  1  0
 11 12  1  0
 11 33  1  6
 11 34  1  0
 12 13  1  0
 12 35  1  6
 12 36  1  0
 14 13  1  1
 13 27  1  0
 14 15  2  0
 14 16  2  0
 14 17  1  0
 17 26  2  0
 17 18  1  0
 18 19  2  0
 18 37  1  0
 19 20  1  0
 19 38  1  0
 20 21  1  0
 20 25  2  0
 21 22  1  1
 21 23  1  0
 21 24  1  0
 25 26  1  0
 25 39  1  0
 26 40  1  0
 27 41  1  1
 27 42  1  0
M  CHG  1   4   1
M  END
$$$$
