ZINC000096098240
     RDKit          3D

 39 40  0  0  0  0  0  0  0  0999 V2000
   -0.0225    1.8097    0.0120 C   0  0  1  0  0  0  0  0  0  0  0  0
    0.0021   -0.0041    0.0020 S   0  0  1  0  0  0  0  0  0  0  0  0
    0.8010   -0.4520    1.0884 O   0  0  0  0  0  0  0  0  0  0  0  0
   -1.3336   -0.4743   -0.1172 O   0  0  0  0  0  0  0  0  0  0  0  0
    0.8798   -0.3584   -1.5454 C   0  0  1  0  0  0  0  0  0  0  0  0
    2.2776    0.2624   -1.4924 C   0  0  1  0  0  0  0  0  0  0  0  0
    3.0031   -0.0092   -2.8141 C   0  0  1  0  0  0  0  0  0  0  0  0
    2.9947   -1.4560   -3.0695 N   0  0  0  0  0  0  0  0  0  0  0  0
    4.4063   -2.2680   -3.3699 S   0  0  1  0  0  0  0  0  0  0  0  0
    4.0502   -3.4377   -4.0939 O   0  0  0  0  0  0  0  0  0  0  0  0
    5.3284   -1.3029   -3.8573 O   0  0  0  0  0  0  0  0  0  0  0  0
    5.0336   -2.8157   -1.8171 C   0  0  0  0  0  0  0  0  0  0  0  0
    5.8874   -2.0056   -1.0920 C   0  0  0  0  0  0  0  0  0  0  0  0
    6.3795   -2.4353    0.1262 C   0  0  0  0  0  0  0  0  0  0  0  0
    6.0174   -3.6748    0.6196 C   0  0  0  0  0  0  0  0  0  0  0  0
    6.5543   -4.1434    1.9474 C   0  0  1  0  0  0  0  0  0  0  0  0
    5.6862   -3.7433    2.9689 F   0  0  0  0  0  0  0  0  0  0  0  0
    6.6572   -5.5386    1.9427 F   0  0  0  0  0  0  0  0  0  0  0  0
    7.8180   -3.5834    2.1634 F   0  0  0  0  0  0  0  0  0  0  0  0
    5.1626   -4.4843   -0.1049 C   0  0  0  0  0  0  0  0  0  0  0  0
    4.6674   -4.0530   -1.3213 C   0  0  0  0  0  0  0  0  0  0  0  0
    1.7100   -2.1689   -3.0530 C   0  0  1  0  0  0  0  0  0  0  0  0
    0.9991   -1.8731   -1.7286 C   0  0  1  0  0  0  0  0  0  0  0  0
    1.0001    2.1870    0.0043 H   0  0  0  0  0  0  0  0  0  0  0  0
   -0.5497    2.1708   -0.8711 H   0  0  0  0  0  0  0  0  0  0  0  0
   -0.5327    2.1613    0.9088 H   0  0  0  0  0  0  0  0  0  0  0  0
    0.3257    0.0661   -2.3826 H   0  0  0  0  0  0  0  0  0  0  0  0
    2.1924    1.3381   -1.3386 H   0  0  0  0  0  0  0  0  0  0  0  0
    2.8411   -0.1796   -0.6707 H   0  0  0  0  0  0  0  0  0  0  0  0
    2.4906    0.5081   -3.6252 H   0  0  0  0  0  0  0  0  0  0  0  0
    4.0320    0.3438   -2.7453 H   0  0  0  0  0  0  0  0  0  0  0  0
    6.1703   -1.0372   -1.4775 H   0  0  0  0  0  0  0  0  0  0  0  0
    7.0471   -1.8027    0.6924 H   0  0  0  0  0  0  0  0  0  0  0  0
    4.8794   -5.4525    0.2808 H   0  0  0  0  0  0  0  0  0  0  0  0
    3.9995   -4.6854   -1.8873 H   0  0  0  0  0  0  0  0  0  0  0  0
    1.0921   -1.8278   -3.8835 H   0  0  0  0  0  0  0  0  0  0  0  0
    1.8858   -3.2409   -3.1418 H   0  0  0  0  0  0  0  0  0  0  0  0
    1.5746   -2.2950   -0.9046 H   0  0  0  0  0  0  0  0  0  0  0  0
    0.0038   -2.3174   -1.7429 H   0  0  0  0  0  0  0  0  0  0  0  0
  1  2  1  0
  1 24  1  6
  1 25  1  0
  1 26  1  0
  2  3  2  0
  2  4  2  0
  2  5  1  6
  5 23  1  0
  5  6  1  0
  5 27  1  6
  6  7  1  0
  6 28  1  1
  6 29  1  0
  7  8  1  0
  7 30  1  6
  7 31  1  0
  9  8  1  1
  8 22  1  0
  9 10  2  0
  9 11  2  0
  9 12  1  0
 12 21  2  0
 12 13  1  0
 13 14  2  0
 13 32  1  0
 14 15  1  0
 14 33  1  0
 15 16  1  0
 15 20  2  0
 16 17  1  1
 16 18  1  0
 16 19  1  0
 20 21  1  0
 20 34  1  0
 21 35  1  0
 22 23  1  0
 22 36  1  6
 22 37  1  0
 23 38  1  1
 23 39  1  0
M  END
$$$$
