ZINC000022874474
     RDKit          3D

 43 44  0  0  0  0  0  0  0  0999 V2000
   -0.0187    1.5258    0.0104 C   0  0  1  0  0  0  0  0  0  0  0  0
    0.0021   -0.0041    0.0020 C   0  0  1  0  0  0  0  0  0  0  0  0
    0.6709   -0.4649   -1.1737 O   0  0  0  0  0  0  0  0  0  0  0  0
    0.7451   -1.8751   -1.2788 N   0  0  0  0  0  0  0  0  0  0  0  0
    1.3511   -2.4407   -2.3414 C   0  0  0  0  0  0  0  0  0  0  0  0
    1.8331   -1.7419   -3.2076 O   0  0  0  0  0  0  0  0  0  0  0  0
    1.4300   -3.9414   -2.4533 C   0  0  1  0  0  0  0  0  0  0  0  0
    2.1311   -4.3029   -3.6878 N   0  0  0  0  0  0  0  0  0  0  0  0
    3.5946   -4.3650   -3.7078 C   0  0  1  0  0  0  0  0  0  0  0  0
    4.0466   -5.7193   -3.2254 C   0  0  0  0  0  0  0  0  0  0  0  0
    4.2812   -5.9307   -1.8796 C   0  0  0  0  0  0  0  0  0  0  0  0
    4.6958   -7.1730   -1.4371 C   0  0  0  0  0  0  0  0  0  0  0  0
    4.8753   -8.2039   -2.3403 C   0  0  0  0  0  0  0  0  0  0  0  0
    4.6398   -7.9928   -3.6860 C   0  0  0  0  0  0  0  0  0  0  0  0
    4.2211   -6.7517   -4.1280 C   0  0  0  0  0  0  0  0  0  0  0  0
    1.2692   -4.6414   -5.0608 S   0  0  1  0  0  0  0  0  0  0  0  0
    2.1061   -5.4571   -5.8691 O   0  0  0  0  0  0  0  0  0  0  0  0
   -0.0261   -5.0399   -4.6334 O   0  0  0  0  0  0  0  0  0  0  0  0
    1.0606   -3.1246   -5.9328 C   0  0  0  0  0  0  0  0  0  0  0  0
   -0.0397   -2.3272   -5.6787 C   0  0  0  0  0  0  0  0  0  0  0  0
   -0.2039   -1.1373   -6.3625 C   0  0  0  0  0  0  0  0  0  0  0  0
    0.7332   -0.7443   -7.3013 C   0  0  0  0  0  0  0  0  0  0  0  0
    0.5280    0.7504   -8.1601 Cl  0  0  0  0  0  0  0  0  0  0  0  0
    1.8342   -1.5427   -7.5552 C   0  0  0  0  0  0  0  0  0  0  0  0
    2.0002   -2.7297   -6.8668 C   0  0  0  0  0  0  0  0  0  0  0  0
    1.0039    1.9031    0.0027 H   0  0  0  0  0  0  0  0  0  0  0  0
   -0.5459    1.8868   -0.8726 H   0  0  0  0  0  0  0  0  0  0  0  0
   -0.5289    1.8773    0.9072 H   0  0  0  0  0  0  0  0  0  0  0  0
    0.5293   -0.3651    0.8851 H   0  0  0  0  0  0  0  0  0  0  0  0
   -1.0205   -0.3814    0.0098 H   0  0  0  0  0  0  0  0  0  0  0  0
    1.9726   -4.3416   -1.5968 H   0  0  0  0  0  0  0  0  0  0  0  0
    0.4229   -4.3578   -2.4722 H   0  0  0  0  0  0  0  0  0  0  0  0
    3.9513   -4.2041   -4.7252 H   0  0  0  0  0  0  0  0  0  0  0  0
    4.0000   -3.5926   -3.0542 H   0  0  0  0  0  0  0  0  0  0  0  0
    4.1410   -5.1253   -1.1739 H   0  0  0  0  0  0  0  0  0  0  0  0
    4.8798   -7.3380   -0.3857 H   0  0  0  0  0  0  0  0  0  0  0  0
    5.1999   -9.1743   -1.9947 H   0  0  0  0  0  0  0  0  0  0  0  0
    4.7804   -8.7981   -4.3917 H   0  0  0  0  0  0  0  0  0  0  0  0
    4.0371   -6.5867   -5.1793 H   0  0  0  0  0  0  0  0  0  0  0  0
   -0.7714   -2.6343   -4.9461 H   0  0  0  0  0  0  0  0  0  0  0  0
   -1.0637   -0.5146   -6.1641 H   0  0  0  0  0  0  0  0  0  0  0  0
    2.5659   -1.2366   -8.2882 H   0  0  0  0  0  0  0  0  0  0  0  0
    2.8598   -3.3529   -7.0646 H   0  0  0  0  0  0  0  0  0  0  0  0
  1  2  1  0
  1 26  1  6
  1 27  1  0
  1 28  1  0
  2  3  1  0
  2 29  1  1
  2 30  1  0
  3  4  1  0
  4  5  1  0
  5  6  2  0
  5  7  1  0
  7  8  1  0
  7 31  1  1
  7 32  1  0
  8  9  1  0
 16  8  1  1
  9 10  1  0
  9 33  1  6
  9 34  1  0
 10 15  2  0
 10 11  1  0
 11 12  2  0
 11 35  1  0
 12 13  1  0
 12 36  1  0
 13 14  2  0
 13 37  1  0
 14 15  1  0
 14 38  1  0
 15 39  1  0
 16 17  2  0
 16 18  2  0
 16 19  1  0
 19 25  2  0
 19 20  1  0
 20 21  2  0
 20 40  1  0
 21 22  1  0
 21 41  1  0
 22 23  1  0
 22 24  2  0
 24 25  1  0
 24 42  1  0
 25 43  1  0
M  END
$$$$
