ZINC000408606255
     RDKit          3D

 47 48  0  0  0  0  0  0  0  0999 V2000
    0.0087    1.5788    0.0407 C   0  0  1  0  0  0  0  0  0  0  0  0
    0.0350    0.0490    0.0424 C   0  0  1  0  0  0  0  0  0  0  0  0
    0.7208   -0.4289   -1.1607 N   0  0  0  0  0  0  0  0  0  0  0  0
    2.1812   -0.5437   -1.1745 C   0  0  1  0  0  0  0  0  0  0  0  0
    2.5923   -1.8931   -0.5821 C   0  0  1  0  0  0  0  0  0  0  0  0
   -0.1548   -0.8393   -2.5051 S   0  0  1  0  0  0  0  0  0  0  0  0
    0.6516   -1.7426   -3.2488 O   0  0  0  0  0  0  0  0  0  0  0  0
   -1.4625   -1.1587   -2.0501 O   0  0  0  0  0  0  0  0  0  0  0  0
   -0.3114    0.6139   -3.4892 C   0  0  0  0  0  0  0  0  0  0  0  0
   -1.3831    1.4659   -3.2962 C   0  0  0  0  0  0  0  0  0  0  0  0
   -1.5082    2.6058   -4.0664 C   0  0  0  0  0  0  0  0  0  0  0  0
   -0.5571    2.8956   -5.0340 C   0  0  0  0  0  0  0  0  0  0  0  0
   -0.6777    4.0166   -5.7927 O   0  0  0  0  0  0  0  0  0  0  0  0
    0.3386    4.2513   -6.7695 C   0  0  1  0  0  0  0  0  0  0  0  0
    0.0395    5.5303   -7.5082 C   0  0  0  0  0  0  0  0  0  0  0  0
   -0.9469    6.1772   -7.2261 O   0  0  0  0  0  0  0  0  0  0  0  0
    0.8681    5.9553   -8.4825 N   0  0  0  0  0  0  0  0  0  0  0  0
    0.5422    7.0914   -9.2322 C   0  0  0  0  0  0  0  0  0  0  0  0
   -0.1236    8.1523   -8.6337 C   0  0  0  0  0  0  0  0  0  0  0  0
   -0.4436    9.2726   -9.3762 C   0  0  0  0  0  0  0  0  0  0  0  0
   -0.1020    9.3380  -10.7143 C   0  0  0  0  0  0  0  0  0  0  0  0
    0.5610    8.2830  -11.3143 C   0  0  0  0  0  0  0  0  0  0  0  0
    0.8894    7.1622  -10.5760 C   0  0  0  0  0  0  0  0  0  0  0  0
    1.7958    5.7198  -11.3969 Br  0  0  0  0  0  0  0  0  0  0  0  0
    0.5175    2.0393   -5.2254 C   0  0  0  0  0  0  0  0  0  0  0  0
    0.6406    0.9032   -4.4492 C   0  0  0  0  0  0  0  0  0  0  0  0
    1.0299    1.9598    0.0291 H   0  0  0  0  0  0  0  0  0  0  0  0
   -0.5210    1.9321   -0.8440 H   0  0  0  0  0  0  0  0  0  0  0  0
   -0.5016    1.9344    0.9358 H   0  0  0  0  0  0  0  0  0  0  0  0
    0.5646   -0.3043    0.9271 H   0  0  0  0  0  0  0  0  0  0  0  0
   -0.9862   -0.3319    0.0540 H   0  0  0  0  0  0  0  0  0  0  0  0
    2.5416   -0.4725   -2.2008 H   0  0  0  0  0  0  0  0  0  0  0  0
    2.6146    0.2610   -0.5807 H   0  0  0  0  0  0  0  0  0  0  0  0
    3.6789   -1.9786   -0.5924 H   0  0  0  0  0  0  0  0  0  0  0  0
    2.2320   -1.9643    0.4442 H   0  0  0  0  0  0  0  0  0  0  0  0
    2.1590   -2.6978   -1.1760 H   0  0  0  0  0  0  0  0  0  0  0  0
   -2.1232    1.2398   -2.5428 H   0  0  0  0  0  0  0  0  0  0  0  0
   -2.3459    3.2707   -3.9158 H   0  0  0  0  0  0  0  0  0  0  0  0
    1.3060    4.3355   -6.2743 H   0  0  0  0  0  0  0  0  0  0  0  0
    0.3627    3.4211   -7.4754 H   0  0  0  0  0  0  0  0  0  0  0  0
    1.6904    5.4738   -8.6642 H   0  0  0  0  0  0  0  0  0  0  0  0
   -0.3916    8.1019   -7.5887 H   0  0  0  0  0  0  0  0  0  0  0  0
   -0.9616   10.0981   -8.9109 H   0  0  0  0  0  0  0  0  0  0  0  0
   -0.3537   10.2149  -11.2924 H   0  0  0  0  0  0  0  0  0  0  0  0
    0.8261    8.3370  -12.3599 H   0  0  0  0  0  0  0  0  0  0  0  0
    1.2590    2.2626   -5.9782 H   0  0  0  0  0  0  0  0  0  0  0  0
    1.4772    0.2364   -4.5976 H   0  0  0  0  0  0  0  0  0  0  0  0
  1  2  1  0
  1 27  1  6
  1 28  1  0
  1 29  1  0
  2  3  1  0
  2 30  1  1
  2 31  1  0
  3  4  1  0
  6  3  1  1
  4  5  1  0
  4 32  1  6
  4 33  1  0
  5 34  1  1
  5 35  1  0
  5 36  1  0
  6  7  2  0
  6  8  2  0
  6  9  1  0
  9 26  2  0
  9 10  1  0
 10 11  2  0
 10 37  1  0
 11 12  1  0
 11 38  1  0
 12 13  1  0
 12 25  2  0
 13 14  1  0
 14 15  1  0
 14 39  1  1
 14 40  1  0
 15 16  2  0
 15 17  1  0
 17 18  1  0
 17 41  1  0
 18 23  2  0
 18 19  1  0
 19 20  2  0
 19 42  1  0
 20 21  1  0
 20 43  1  0
 21 22  2  0
 21 44  1  0
 22 23  1  0
 22 45  1  0
 23 24  1  0
 25 26  1  0
 25 46  1  0
 26 47  1  0
M  END
$$$$
