ZINC000009134025
     RDKit          3D

 38 40  0  0  1  0  0  0  0  0999 V2000
    0.0021   -0.0041    0.0020 O   0  0  0  0  0  0  0  0  0  0  0  0
   -0.0144    1.2086    0.0087 C   0  0  0  0  0  0  0  0  0  0  0  0
    1.1435    1.8983    0.0013 N   0  0  0  0  0  0  0  0  0  0  0  0
    2.4220    1.1832   -0.0147 C   0  0  1  0  0  0  0  0  0  0  0  0
    2.5588    0.3570   -1.2952 C   0  0  1  0  0  0  0  0  0  0  0  0
    2.4831    1.2034   -2.4066 F   0  0  0  0  0  0  0  0  0  0  0  0
    3.7923   -0.3030   -1.2948 F   0  0  0  0  0  0  0  0  0  0  0  0
    1.5260   -0.5848   -1.3551 F   0  0  0  0  0  0  0  0  0  0  0  0
    3.5453    2.1266    0.1196 N   0  0  0  0  0  0  0  0  0  0  0  0
    4.1909    1.7974    1.2531 C   0  0  0  0  0  0  0  0  0  0  0  0
    5.1744    2.3812    1.6644 O   0  0  0  0  0  0  0  0  0  0  0  0
    3.6292    0.7556    1.8769 N   0  0  0  0  0  0  0  0  0  0  0  0
    4.1229    0.1844    3.1324 C   0  0  1  0  0  0  0  0  0  0  0  0
    3.4588    0.8767    4.2947 C   0  0  0  0  0  0  0  0  0  0  0  0
    4.0330    2.0070    4.8457 C   0  0  0  0  0  0  0  0  0  0  0  0
    3.4239    2.6420    5.9118 C   0  0  0  0  0  0  0  0  0  0  0  0
    2.2403    2.1469    6.4266 C   0  0  0  0  0  0  0  0  0  0  0  0
    1.6656    1.0171    5.8750 C   0  0  0  0  0  0  0  0  0  0  0  0
    2.2726    0.3846    4.8061 C   0  0  0  0  0  0  0  0  0  0  0  0
    2.5528    0.2971    1.2082 C   0  0  0  0  0  0  0  0  0  0  0  0
    1.8374   -0.6306    1.5202 O   0  0  0  0  0  0  0  0  0  0  0  0
   -1.3296    1.9443    0.0189 C   0  0  1  0  0  0  0  0  0  0  0  0
   -2.1936    1.8643   -1.2412 C   0  0  1  0  0  0  0  0  0  0  0  0
   -2.6086    1.1047    0.0204 C   0  0  1  0  0  0  0  0  0  0  0  0
    1.1304    2.8682    0.0067 H   0  0  0  0  0  0  0  0  0  0  0  0
    3.7751    2.8449   -0.4905 H   0  0  0  0  0  0  0  0  0  0  0  0
    3.8913   -0.8802    3.1631 H   0  0  0  0  0  0  0  0  0  0  0  0
    5.2022    0.3234    3.1952 H   0  0  0  0  0  0  0  0  0  0  0  0
    4.9577    2.3937    4.4435 H   0  0  0  0  0  0  0  0  0  0  0  0
    3.8728    3.5246    6.3428 H   0  0  0  0  0  0  0  0  0  0  0  0
    1.7647    2.6426    7.2600 H   0  0  0  0  0  0  0  0  0  0  0  0
    0.7411    0.6302    6.2774 H   0  0  0  0  0  0  0  0  0  0  0  0
    1.8236   -0.4980    4.3751 H   0  0  0  0  0  0  0  0  0  0  0  0
   -1.3407    2.8795    0.5787 H   0  0  0  0  0  0  0  0  0  0  0  0
   -2.7733    2.7471   -1.5108 H   0  0  0  0  0  0  0  0  0  0  0  0
   -1.8108    1.2795   -2.0776 H   0  0  0  0  0  0  0  0  0  0  0  0
   -2.4989    0.0203    0.0140 H   0  0  0  0  0  0  0  0  0  0  0  0
   -3.4614    1.4878    0.5808 H   0  0  0  0  0  0  0  0  0  0  0  0
  1  2  2  0
  2  3  1  0
  2 22  1  0
  3 25  1  0
  4  3  1  6
  4 20  1  0
  4  5  1  0
  4  9  1  0
  5  6  1  6
  5  7  1  0
  5  8  1  0
  9 10  1  0
  9 26  1  0
 10 11  2  0
 10 12  1  0
 12 13  1  0
 12 20  1  0
 13 14  1  0
 13 27  1  6
 13 28  1  0
 14 19  2  0
 14 15  1  0
 15 16  2  0
 15 29  1  0
 16 17  1  0
 16 30  1  0
 17 18  2  0
 17 31  1  0
 18 19  1  0
 18 32  1  0
 19 33  1  0
 20 21  2  0
 22 24  1  0
 22 23  1  0
 22 34  1  1
 23 24  1  0
 23 35  1  6
 23 36  1  0
 24 37  1  6
 24 38  1  0
M  END
$$$$
