ZINC000237440759
     RDKit          3D

 40 41  0  0  1  0  0  0  0  0999 V2000
   -0.0187    1.5258    0.0104 C   0  0  1  0  0  0  0  0  0  0  0  0
    0.0021   -0.0041    0.0020 C   0  0  2  0  0  0  0  0  0  0  0  0
    0.5123   -0.3556   -0.8948 H   0  0  0  0  0  0  0  0  0  0  0  0
   -1.4117   -0.5257    0.0127 C   0  0  0  0  0  0  0  0  0  0  0  0
   -2.1181   -0.3926   -0.9721 O   0  0  0  0  0  0  0  0  0  0  0  0
   -1.8492   -1.0808    1.0062 O   0  0  0  0  0  0  0  0  0  0  0  0
    0.7126   -0.4907    1.1921 N   0  0  0  0  0  0  0  0  0  0  0  0
    1.9624    0.2528    1.3998 C   0  0  1  0  0  0  0  0  0  0  0  0
    2.5795   -0.1566    2.7414 C   0  0  1  0  0  0  0  0  0  0  0  0
    2.7155   -1.6209    2.7657 N   0  0  0  0  0  0  0  0  0  0  0  0
    4.1575   -2.3341    3.1585 S   0  0  1  0  0  0  0  0  0  0  0  0
    4.1361   -3.6299    2.5758 O   0  0  0  0  0  0  0  0  0  0  0  0
    5.1683   -1.3743    2.8822 O   0  0  0  0  0  0  0  0  0  0  0  0
    4.1625   -2.5736    4.9041 C   0  0  0  0  0  0  0  0  0  0  0  0
    4.6536   -1.5848    5.7360 C   0  0  0  0  0  0  0  0  0  0  0  0
    4.6576   -1.7727    7.1055 C   0  0  0  0  0  0  0  0  0  0  0  0
    4.1699   -2.9491    7.6432 C   0  0  0  0  0  0  0  0  0  0  0  0
    4.1747   -3.1542    9.1362 C   0  0  1  0  0  0  0  0  0  0  0  0
    2.9726   -2.6835    9.6753 F   0  0  0  0  0  0  0  0  0  0  0  0
    4.3105   -4.5175    9.4192 F   0  0  0  0  0  0  0  0  0  0  0  0
    5.2453   -2.4519    9.6999 F   0  0  0  0  0  0  0  0  0  0  0  0
    3.6775   -3.9373    6.8114 C   0  0  0  0  0  0  0  0  0  0  0  0
    3.6701   -3.7479    5.4421 C   0  0  0  0  0  0  0  0  0  0  0  0
    1.5367   -2.4349    2.4323 C   0  0  1  0  0  0  0  0  0  0  0  0
    0.9607   -1.9358    1.1029 C   0  0  1  0  0  0  0  0  0  0  0  0
    1.0039    1.9031    0.0027 H   0  0  0  0  0  0  0  0  0  0  0  0
   -0.5459    1.8868   -0.8726 H   0  0  0  0  0  0  0  0  0  0  0  0
   -0.5289    1.8773    0.9072 H   0  0  0  0  0  0  0  0  0  0  0  0
    2.6598    0.0243    0.5939 H   0  0  0  0  0  0  0  0  0  0  0  0
    1.7524    1.3223    1.4073 H   0  0  0  0  0  0  0  0  0  0  0  0
    3.5614    0.3042    2.8486 H   0  0  0  0  0  0  0  0  0  0  0  0
    1.9304    0.1644    3.5561 H   0  0  0  0  0  0  0  0  0  0  0  0
    5.0346   -0.6657    5.3159 H   0  0  0  0  0  0  0  0  0  0  0  0
    5.0419   -1.0005    7.7554 H   0  0  0  0  0  0  0  0  0  0  0  0
    3.2962   -4.8563    7.2315 H   0  0  0  0  0  0  0  0  0  0  0  0
    3.2854   -4.5199    4.7922 H   0  0  0  0  0  0  0  0  0  0  0  0
    1.8293   -3.4804    2.3351 H   0  0  0  0  0  0  0  0  0  0  0  0
    0.7874   -2.3329    3.2173 H   0  0  0  0  0  0  0  0  0  0  0  0
    0.0243   -2.4535    0.8950 H   0  0  0  0  0  0  0  0  0  0  0  0
    1.6721   -2.1339    0.3011 H   0  0  0  0  0  0  0  0  0  0  0  0
  1  2  1  0
  1 26  1  6
  1 27  1  0
  1 28  1  0
  2  3  1  6
  2  4  1  0
  2  7  1  0
  4  5  2  0
  4  6  1  0
  7 25  1  0
  7  8  1  0
  8  9  1  0
  8 29  1  6
  8 30  1  0
  9 10  1  0
  9 31  1  1
  9 32  1  0
 11 10  1  1
 10 24  1  0
 11 12  2  0
 11 13  2  0
 11 14  1  0
 14 23  2  0
 14 15  1  0
 15 16  2  0
 15 33  1  0
 16 17  1  0
 16 34  1  0
 17 18  1  0
 17 22  2  0
 18 19  1  1
 18 20  1  0
 18 21  1  0
 22 23  1  0
 22 35  1  0
 23 36  1  0
 24 25  1  0
 24 37  1  6
 24 38  1  0
 25 39  1  6
 25 40  1  0
M  END
$$$$
