ZINC000012821194
     RDKit          3D

 56 59  0  0  1  0  0  0  0  0999 V2000
    0.2194    0.1823    0.2758 O   0  0  0  0  0  0  0  0  0  0  0  0
    0.0618    1.3759    0.1290 C   0  0  0  0  0  0  0  0  0  0  0  0
    1.1311    2.1932    0.0588 N   0  0  0  0  0  0  0  0  0  0  0  0
    2.4839    1.6399    0.1598 C   0  0  1  0  0  0  0  0  0  0  0  0
    3.5364    2.1641   -0.8190 C   0  0  1  0  0  0  0  0  0  0  0  0
    3.5927    2.5706    0.6549 C   0  0  1  0  0  0  0  0  0  0  0  0
   -1.3296    1.9443    0.0189 C   0  0  2  0  0  0  0  0  0  0  0  0
   -1.4412    2.4483   -0.9411 H   0  0  0  0  0  0  0  0  0  0  0  0
   -1.5586    2.9316    1.1342 C   0  0  0  0  0  0  0  0  0  0  0  0
   -1.1314    2.6381    2.4157 C   0  0  0  0  0  0  0  0  0  0  0  0
   -1.3414    3.5437    3.4387 C   0  0  0  0  0  0  0  0  0  0  0  0
   -1.9783    4.7431    3.1802 C   0  0  0  0  0  0  0  0  0  0  0  0
   -2.4046    5.0370    1.8985 C   0  0  0  0  0  0  0  0  0  0  0  0
   -2.1907    4.1332    0.8746 C   0  0  0  0  0  0  0  0  0  0  0  0
   -2.3121    0.8568    0.1183 N   0  0  0  0  0  0  0  0  0  0  0  0
   -2.1931    0.1556    1.4036 C   0  0  1  0  0  0  0  0  0  0  0  0
   -3.3446   -0.8457    1.5440 C   0  0  1  0  0  0  0  0  0  0  0  0
   -3.3533   -1.7168    0.3589 N   0  0  0  0  0  0  0  0  0  0  0  0
   -3.3849   -3.3650    0.5157 S   0  0  1  0  0  0  0  0  0  0  0  0
   -2.8426   -3.8930   -0.6870 O   0  0  0  0  0  0  0  0  0  0  0  0
   -2.8538   -3.6560    1.8012 O   0  0  0  0  0  0  0  0  0  0  0  0
   -5.0775   -3.8530    0.5546 C   0  0  0  0  0  0  0  0  0  0  0  0
   -5.7484   -3.9254    1.7610 C   0  0  0  0  0  0  0  0  0  0  0  0
   -7.0763   -4.3082    1.7915 C   0  0  0  0  0  0  0  0  0  0  0  0
   -7.7335   -4.6181    0.6155 C   0  0  0  0  0  0  0  0  0  0  0  0
   -9.1811   -5.0359    0.6488 C   0  0  1  0  0  0  0  0  0  0  0  0
   -9.9957   -3.9046    0.5319 F   0  0  0  0  0  0  0  0  0  0  0  0
   -9.4392   -5.9084   -0.4139 F   0  0  0  0  0  0  0  0  0  0  0  0
   -9.4520   -5.6826    1.8594 F   0  0  0  0  0  0  0  0  0  0  0  0
   -7.0630   -4.5444   -0.5910 C   0  0  0  0  0  0  0  0  0  0  0  0
   -5.7361   -4.1579   -0.6219 C   0  0  0  0  0  0  0  0  0  0  0  0
   -3.3338   -1.0851   -0.9692 C   0  0  1  0  0  0  0  0  0  0  0  0
   -2.1828   -0.0743   -1.0106 C   0  0  1  0  0  0  0  0  0  0  0  0
    1.0051    3.1478   -0.0586 H   0  0  0  0  0  0  0  0  0  0  0  0
    2.5421    0.5901    0.4475 H   0  0  0  0  0  0  0  0  0  0  0  0
    4.2874    1.4592   -1.1757 H   0  0  0  0  0  0  0  0  0  0  0  0
    3.2225    2.9207   -1.5382 H   0  0  0  0  0  0  0  0  0  0  0  0
    3.3157    3.5947    0.9055 H   0  0  0  0  0  0  0  0  0  0  0  0
    4.3807    2.1332    1.2679 H   0  0  0  0  0  0  0  0  0  0  0  0
   -0.6339    1.7010    2.6177 H   0  0  0  0  0  0  0  0  0  0  0  0
   -1.0083    3.3141    4.4401 H   0  0  0  0  0  0  0  0  0  0  0  0
   -2.1430    5.4503    3.9796 H   0  0  0  0  0  0  0  0  0  0  0  0
   -2.9024    5.9739    1.6965 H   0  0  0  0  0  0  0  0  0  0  0  0
   -2.5238    4.3628   -0.1268 H   0  0  0  0  0  0  0  0  0  0  0  0
   -1.2423   -0.3759    1.4414 H   0  0  0  0  0  0  0  0  0  0  0  0
   -2.2387    0.8787    2.2180 H   0  0  0  0  0  0  0  0  0  0  0  0
   -3.1985   -1.4484    2.4403 H   0  0  0  0  0  0  0  0  0  0  0  0
   -4.2908   -0.3087    1.6107 H   0  0  0  0  0  0  0  0  0  0  0  0
   -5.2350   -3.6833    2.6798 H   0  0  0  0  0  0  0  0  0  0  0  0
   -7.6003   -4.3655    2.7342 H   0  0  0  0  0  0  0  0  0  0  0  0
   -7.5765   -4.7861   -1.5099 H   0  0  0  0  0  0  0  0  0  0  0  0
   -5.2123   -4.1002   -1.5646 H   0  0  0  0  0  0  0  0  0  0  0  0
   -3.1806   -1.8460   -1.7344 H   0  0  0  0  0  0  0  0  0  0  0  0
   -4.2789   -0.5710   -1.1441 H   0  0  0  0  0  0  0  0  0  0  0  0
   -2.2208    0.4821   -1.9471 H   0  0  0  0  0  0  0  0  0  0  0  0
   -1.2320   -0.6026   -0.9392 H   0  0  0  0  0  0  0  0  0  0  0  0
  1  2  2  0
  2  3  1  0
  2  7  1  0
  3  4  1  0
  3 34  1  0
  4  6  1  0
  4  5  1  0
  4 35  1  1
  5  6  1  0
  5 36  1  6
  5 37  1  0
  6 38  1  6
  6 39  1  0
  7  8  1  6
  7  9  1  0
  7 15  1  0
  9 14  2  0
  9 10  1  0
 10 11  2  0
 10 40  1  0
 11 12  1  0
 11 41  1  0
 12 13  2  0
 12 42  1  0
 13 14  1  0
 13 43  1  0
 14 44  1  0
 15 33  1  0
 15 16  1  0
 16 17  1  0
 16 45  1  6
 16 46  1  0
 17 18  1  0
 17 47  1  1
 17 48  1  0
 19 18  1  6
 18 32  1  0
 19 20  2  0
 19 21  2  0
 19 22  1  0
 22 31  2  0
 22 23  1  0
 23 24  2  0
 23 49  1  0
 24 25  1  0
 24 50  1  0
 25 26  1  0
 25 30  2  0
 26 27  1  6
 26 28  1  0
 26 29  1  0
 30 31  1  0
 30 51  1  0
 31 52  1  0
 32 33  1  0
 32 53  1  6
 32 54  1  0
 33 55  1  6
 33 56  1  0
M  END
$$$$
