ZINC000408602718
     RDKit          3D

 66 68  0  0  0  0  0  0  0  0999 V2000
    1.0223   -5.9028  -10.0326 C   0  0  1  0  0  0  0  0  0  0  0  0
    1.5278   -4.5714   -9.9145 O   0  0  0  0  0  0  0  0  0  0  0  0
    1.7761   -4.1149   -8.6587 C   0  0  0  0  0  0  0  0  0  0  0  0
    1.5435   -4.9334   -7.5633 C   0  0  0  0  0  0  0  0  0  0  0  0
    1.7972   -4.4671   -6.2877 C   0  0  0  0  0  0  0  0  0  0  0  0
    2.2820   -3.1857   -6.1026 C   0  0  0  0  0  0  0  0  0  0  0  0
    2.6039   -2.5938   -4.4745 S   0  0  1  0  0  0  0  0  0  0  0  0
    2.5210   -1.1767   -4.5390 O   0  0  0  0  0  0  0  0  0  0  0  0
    1.8089   -3.3798   -3.5973 O   0  0  0  0  0  0  0  0  0  0  0  0
    4.1819   -2.9545   -4.1249 N   0  0  0  0  0  0  0  0  0  0  0  0
    4.5349   -4.2833   -3.6191 C   0  0  1  0  0  0  0  0  0  0  0  0
    4.9650   -5.1598   -4.7671 C   0  0  0  0  0  0  0  0  0  0  0  0
    4.9756   -4.7180   -5.8965 O   0  0  0  0  0  0  0  0  0  0  0  0
    5.3378   -6.4347   -4.5386 N   0  0  0  0  0  0  0  0  0  0  0  0
    5.7560   -7.2867   -5.6546 C   0  0  1  0  0  0  0  0  0  0  0  0
    7.2410   -7.0576   -5.9424 C   0  0  1  0  0  0  0  0  0  0  0  0
    7.7740   -8.1990   -6.8109 C   0  0  1  0  0  0  0  0  0  0  0  0
    7.2996   -8.0069   -8.2529 C   0  0  1  0  0  0  0  0  0  0  0  0
    5.8246   -8.3985   -8.3607 C   0  0  1  0  0  0  0  0  0  0  0  0
    5.5856   -9.7035   -7.5989 C   0  0  1  0  0  0  0  0  0  0  0  0
    4.6977   -9.4294   -6.3833 C   0  0  1  0  0  0  0  0  0  0  0  0
    5.5270   -8.7545   -5.2889 C   0  0  1  0  0  0  0  0  0  0  0  0
    5.2249   -1.9447   -4.3215 C   0  0  1  0  0  0  0  0  0  0  0  0
    5.4908   -1.2368   -3.0179 C   0  0  0  0  0  0  0  0  0  0  0  0
    4.8526   -0.0433   -2.7368 C   0  0  0  0  0  0  0  0  0  0  0  0
    5.0964    0.6060   -1.5410 C   0  0  0  0  0  0  0  0  0  0  0  0
    5.9782    0.0616   -0.6262 C   0  0  0  0  0  0  0  0  0  0  0  0
    6.6158   -1.1324   -0.9069 C   0  0  0  0  0  0  0  0  0  0  0  0
    6.3686   -1.7839   -2.1008 C   0  0  0  0  0  0  0  0  0  0  0  0
    2.5150   -2.3679   -7.1931 C   0  0  0  0  0  0  0  0  0  0  0  0
    2.2680   -2.8312   -8.4706 C   0  0  0  0  0  0  0  0  0  0  0  0
    2.5227   -1.9395   -9.6585 C   0  0  1  0  0  0  0  0  0  0  0  0
    1.7387   -6.6029   -9.6028 H   0  0  0  0  0  0  0  0  0  0  0  0
    0.0744   -5.9801   -9.5001 H   0  0  0  0  0  0  0  0  0  0  0  0
    0.8683   -6.1409  -11.0851 H   0  0  0  0  0  0  0  0  0  0  0  0
    1.1642   -5.9343   -7.7074 H   0  0  0  0  0  0  0  0  0  0  0  0
    1.6163   -5.1040   -5.4345 H   0  0  0  0  0  0  0  0  0  0  0  0
    5.3524   -4.1944   -2.9037 H   0  0  0  0  0  0  0  0  0  0  0  0
    3.6688   -4.7269   -3.1279 H   0  0  0  0  0  0  0  0  0  0  0  0
    5.3293   -6.7880   -3.6353 H   0  0  0  0  0  0  0  0  0  0  0  0
    5.1717   -7.0377   -6.5405 H   0  0  0  0  0  0  0  0  0  0  0  0
    7.3673   -6.1113   -6.4684 H   0  0  0  0  0  0  0  0  0  0  0  0
    7.7928   -7.0276   -5.0029 H   0  0  0  0  0  0  0  0  0  0  0  0
    8.8637   -8.1979   -6.7837 H   0  0  0  0  0  0  0  0  0  0  0  0
    7.4019   -9.1499   -6.4297 H   0  0  0  0  0  0  0  0  0  0  0  0
    7.4200   -6.9620   -8.5389 H   0  0  0  0  0  0  0  0  0  0  0  0
    7.8921   -8.6360   -8.9172 H   0  0  0  0  0  0  0  0  0  0  0  0
    5.2070   -7.6093   -7.9320 H   0  0  0  0  0  0  0  0  0  0  0  0
    5.5611   -8.5366   -9.4093 H   0  0  0  0  0  0  0  0  0  0  0  0
    5.0928  -10.4217   -8.2542 H   0  0  0  0  0  0  0  0  0  0  0  0
    6.5407  -10.1104   -7.2667 H   0  0  0  0  0  0  0  0  0  0  0  0
    3.8765   -8.7739   -6.6734 H   0  0  0  0  0  0  0  0  0  0  0  0
    4.2962  -10.3703   -6.0069 H   0  0  0  0  0  0  0  0  0  0  0  0
    6.4882   -9.2603   -5.1974 H   0  0  0  0  0  0  0  0  0  0  0  0
    4.9936   -8.8136   -4.3402 H   0  0  0  0  0  0  0  0  0  0  0  0
    6.1391   -2.4287   -4.6651 H   0  0  0  0  0  0  0  0  0  0  0  0
    4.8945   -1.2213   -5.0669 H   0  0  0  0  0  0  0  0  0  0  0  0
    4.1636    0.3821   -3.4515 H   0  0  0  0  0  0  0  0  0  0  0  0
    4.5983    1.5388   -1.3217 H   0  0  0  0  0  0  0  0  0  0  0  0
    6.1693    0.5692    0.3077 H   0  0  0  0  0  0  0  0  0  0  0  0
    7.3050   -1.5576   -0.1923 H   0  0  0  0  0  0  0  0  0  0  0  0
    6.8667   -2.7167   -2.3202 H   0  0  0  0  0  0  0  0  0  0  0  0
    2.8941   -1.3673   -7.0459 H   0  0  0  0  0  0  0  0  0  0  0  0
    3.5475   -2.0775  -10.0033 H   0  0  0  0  0  0  0  0  0  0  0  0
    1.8316   -2.1973  -10.4611 H   0  0  0  0  0  0  0  0  0  0  0  0
    2.3732   -0.8990   -9.3705 H   0  0  0  0  0  0  0  0  0  0  0  0
  1  2  1  0
  1 33  1  1
  1 34  1  0
  1 35  1  0
  2  3  1  0
  3 31  2  0
  3  4  1  0
  4  5  2  0
  4 36  1  0
  5  6  1  0
  5 37  1  0
  6  7  1  0
  6 30  2  0
  7  8  2  0
  7  9  2  0
  7 10  1  1
 10 11  1  0
 10 23  1  0
 11 12  1  0
 11 38  1  1
 11 39  1  0
 12 13  2  0
 12 14  1  0
 14 15  1  0
 14 40  1  0
 15 22  1  0
 15 16  1  0
 15 41  1  6
 16 17  1  0
 16 42  1  6
 16 43  1  0
 17 18  1  0
 17 44  1  6
 17 45  1  0
 18 19  1  0
 18 46  1  6
 18 47  1  0
 19 20  1  0
 19 48  1  1
 19 49  1  0
 20 21  1  0
 20 50  1  6
 20 51  1  0
 21 22  1  0
 21 52  1  6
 21 53  1  0
 22 54  1  1
 22 55  1  0
 23 24  1  0
 23 56  1  6
 23 57  1  0
 24 29  2  0
 24 25  1  0
 25 26  2  0
 25 58  1  0
 26 27  1  0
 26 59  1  0
 27 28  2  0
 27 60  1  0
 28 29  1  0
 28 61  1  0
 29 62  1  0
 30 31  1  0
 30 63  1  0
 31 32  1  0
 32 64  1  6
 32 65  1  0
 32 66  1  0
M  END
$$$$
