ZINC000065364965
     RDKit          3D

 33 33  0  0  1  0  0  0  0  0999 V2000
    0.4506    0.9937    0.6913 C   0  0  1  0  0  0  0  0  0  0  0  0
    0.1314   -0.3950    0.1341 C   0  0  2  0  0  0  0  0  0  0  0  0
   -0.9441   -0.5664    0.1798 H   0  0  0  0  0  0  0  0  0  0  0  0
    0.8420   -1.4408    0.9541 C   0  0  0  0  0  0  0  0  0  0  0  0
    0.5857   -1.5523    2.2726 N   0  0  0  0  0  0  0  0  0  0  0  0
    1.6445   -2.1822    0.4275 O   0  0  0  0  0  0  0  0  0  0  0  0
    0.5804   -0.4777   -1.2579 N   0  0  0  0  0  0  0  0  0  0  0  0
    1.9069   -0.1846   -1.5824 C   0  0  0  0  0  0  0  0  0  0  0  0
    2.7530   -1.1914   -2.0292 C   0  0  0  0  0  0  0  0  0  0  0  0
    4.0641   -0.8980   -2.3497 C   0  0  0  0  0  0  0  0  0  0  0  0
    4.5346    0.3963   -2.2262 C   0  0  0  0  0  0  0  0  0  0  0  0
    3.6949    1.4012   -1.7812 C   0  0  0  0  0  0  0  0  0  0  0  0
    4.2121    2.8104   -1.6482 C   0  0  1  0  0  0  0  0  0  0  0  0
    5.5575    2.8513   -2.0298 F   0  0  0  0  0  0  0  0  0  0  0  0
    3.4674    3.6603   -2.4730 F   0  0  0  0  0  0  0  0  0  0  0  0
    4.0917    3.2277   -0.3183 F   0  0  0  0  0  0  0  0  0  0  0  0
    2.3815    1.1159   -1.4645 C   0  0  0  0  0  0  0  0  0  0  0  0
   -0.4848   -0.9186   -2.4467 S   0  0  1  0  0  0  0  0  0  0  0  0
   -1.2874    0.6335   -2.9339 C   0  0  1  0  0  0  0  0  0  0  0  0
    0.3420   -1.4032   -3.4960 O   0  0  0  0  0  0  0  0  0  0  0  0
   -1.4100   -1.7733   -1.7889 O   0  0  0  0  0  0  0  0  0  0  0  0
    1.5314    1.1210    0.7526 H   0  0  0  0  0  0  0  0  0  0  0  0
    0.0318    1.7545    0.0327 H   0  0  0  0  0  0  0  0  0  0  0  0
    0.0159    1.0949    1.6858 H   0  0  0  0  0  0  0  0  0  0  0  0
   -0.0561   -0.9593    2.6937 H   0  0  0  0  0  0  0  0  0  0  0  0
    1.0431   -2.2254    2.8004 H   0  0  0  0  0  0  0  0  0  0  0  0
    2.3862   -2.2026   -2.1255 H   0  0  0  0  0  0  0  0  0  0  0  0
    4.7226   -1.6805   -2.6968 H   0  0  0  0  0  0  0  0  0  0  0  0
    5.5602    0.6230   -2.4775 H   0  0  0  0  0  0  0  0  0  0  0  0
    1.7263    1.9010   -1.1171 H   0  0  0  0  0  0  0  0  0  0  0  0
   -0.5265    1.3810   -3.1585 H   0  0  0  0  0  0  0  0  0  0  0  0
   -1.9016    0.4631   -3.8181 H   0  0  0  0  0  0  0  0  0  0  0  0
   -1.9163    0.9891   -2.1177 H   0  0  0  0  0  0  0  0  0  0  0  0
  1  2  1  0
  1 22  1  1
  1 23  1  0
  1 24  1  0
  2  3  1  6
  2  4  1  0
  2  7  1  0
  4  5  1  0
  4  6  2  0
  5 25  1  0
  5 26  1  0
  7  8  1  0
 18  7  1  1
  8 17  2  0
  8  9  1  0
  9 10  2  0
  9 27  1  0
 10 11  1  0
 10 28  1  0
 11 12  2  0
 11 29  1  0
 12 13  1  0
 12 17  1  0
 13 14  1  6
 13 15  1  0
 13 16  1  0
 17 30  1  0
 18 19  1  0
 18 20  2  0
 18 21  2  0
 19 31  1  6
 19 32  1  0
 19 33  1  0
M  END
$$$$
