ZINC000071415932
     RDKit          3D

 39 40  0  0  0  0  0  0  0  0999 V2000
    0.0587    1.4926    0.7548 C   0  0  1  0  0  0  0  0  0  0  0  0
    0.0617   -0.0279    0.5848 C   0  0  1  0  0  0  0  0  0  0  0  0
    0.6890   -0.3889   -0.7636 C   0  0  1  0  0  0  0  0  0  0  0  0
    0.6588   -1.9097   -0.9455 C   0  0  1  0  0  0  0  0  0  0  0  0
    1.3121   -2.5373    0.2113 N   0  0  0  0  0  0  0  0  0  0  0  0
    2.5506   -3.6158   -0.0016 S   0  0  1  0  0  0  0  0  0  0  0  0
    2.6738   -4.3315    1.2198 O   0  0  0  0  0  0  0  0  0  0  0  0
    2.3213   -4.2482   -1.2533 O   0  0  0  0  0  0  0  0  0  0  0  0
    4.0324   -2.6795   -0.1813 C   0  0  0  0  0  0  0  0  0  0  0  0
    4.0458   -1.3371    0.1473 C   0  0  0  0  0  0  0  0  0  0  0  0
    5.2085   -0.6025    0.0063 C   0  0  0  0  0  0  0  0  0  0  0  0
    5.2229    0.8614    0.3641 C   0  0  1  0  0  0  0  0  0  0  0  0
    5.5704    1.0088    1.7112 F   0  0  0  0  0  0  0  0  0  0  0  0
    6.1588    1.5274   -0.4345 F   0  0  0  0  0  0  0  0  0  0  0  0
    3.9530    1.4069    0.1476 F   0  0  0  0  0  0  0  0  0  0  0  0
    6.3577   -1.2107   -0.4623 C   0  0  0  0  0  0  0  0  0  0  0  0
    6.3445   -2.5537   -0.7906 C   0  0  0  0  0  0  0  0  0  0  0  0
    5.1832   -3.2891   -0.6456 C   0  0  0  0  0  0  0  0  0  0  0  0
    5.1688   -4.7529   -1.0033 C   0  0  1  0  0  0  0  0  0  0  0  0
    6.4657   -5.1671   -1.3252 F   0  0  0  0  0  0  0  0  0  0  0  0
    4.6993   -5.4946    0.0860 F   0  0  0  0  0  0  0  0  0  0  0  0
    4.3280   -4.9560   -2.1029 F   0  0  0  0  0  0  0  0  0  0  0  0
    0.8459   -2.1895    1.5605 C   0  0  1  0  0  0  0  0  0  0  0  0
    0.8740   -0.6656    1.7143 C   0  0  1  0  0  0  0  0  0  0  0  0
    1.0828    1.8641    0.7205 H   0  0  0  0  0  0  0  0  0  0  0  0
   -0.5198    1.9470   -0.0495 H   0  0  0  0  0  0  0  0  0  0  0  0
   -0.3892    1.7500    1.7147 H   0  0  0  0  0  0  0  0  0  0  0  0
   -0.9625   -0.3992    0.6197 H   0  0  0  0  0  0  0  0  0  0  0  0
    0.1237    0.0847   -1.5663 H   0  0  0  0  0  0  0  0  0  0  0  0
    1.7212   -0.0397   -0.7898 H   0  0  0  0  0  0  0  0  0  0  0  0
   -0.3748   -2.2496   -1.0103 H   0  0  0  0  0  0  0  0  0  0  0  0
    1.1922   -2.1793   -1.8571 H   0  0  0  0  0  0  0  0  0  0  0  0
    3.1479   -0.8619    0.5138 H   0  0  0  0  0  0  0  0  0  0  0  0
    7.2660   -0.6368   -0.5725 H   0  0  0  0  0  0  0  0  0  0  0  0
    7.2424   -3.0289   -1.1571 H   0  0  0  0  0  0  0  0  0  0  0  0
   -0.1724   -2.5522    1.7001 H   0  0  0  0  0  0  0  0  0  0  0  0
    1.5027   -2.6438    2.3024 H   0  0  0  0  0  0  0  0  0  0  0  0
    1.9045   -0.3138    1.6647 H   0  0  0  0  0  0  0  0  0  0  0  0
    0.4404   -0.3889    2.6753 H   0  0  0  0  0  0  0  0  0  0  0  0
  1  2  1  0
  1 25  1  1
  1 26  1  0
  1 27  1  0
  2 24  1  0
  2  3  1  0
  2 28  1  6
  3  4  1  0
  3 29  1  6
  3 30  1  0
  4  5  1  0
  4 31  1  6
  4 32  1  0
  6  5  1  1
  5 23  1  0
  6  7  2  0
  6  8  2  0
  6  9  1  0
  9 18  2  0
  9 10  1  0
 10 11  2  0
 10 33  1  0
 11 12  1  0
 11 16  1  0
 12 13  1  1
 12 14  1  0
 12 15  1  0
 16 17  2  0
 16 34  1  0
 17 18  1  0
 17 35  1  0
 18 19  1  0
 19 20  1  6
 19 21  1  0
 19 22  1  0
 23 24  1  0
 23 36  1  1
 23 37  1  0
 24 38  1  1
 24 39  1  0
M  END
$$$$
