ZINC000028207362
     RDKit          3D

 53 54  0  0  1  0  0  0  0  0999 V2000
   -0.0187    1.5258    0.0104 C   0  0  1  0  0  0  0  0  0  0  0  0
    0.0021   -0.0041    0.0020 C   0  0  2  0  0  0  0  0  0  0  0  0
    0.5123   -0.3556   -0.8948 H   0  0  0  0  0  0  0  0  0  0  0  0
   -1.4333   -0.5336    0.0129 C   0  0  1  0  0  0  0  0  0  0  0  0
   -1.4157   -2.0577   -0.1212 C   0  0  1  0  0  0  0  0  0  0  0  0
   -2.8295   -2.5793   -0.1105 C   0  0  0  0  0  0  0  0  0  0  0  0
   -3.4324   -2.9175    1.0866 C   0  0  0  0  0  0  0  0  0  0  0  0
   -4.7292   -3.3959    1.0964 C   0  0  0  0  0  0  0  0  0  0  0  0
   -5.4233   -3.5358   -0.0908 C   0  0  0  0  0  0  0  0  0  0  0  0
   -4.8208   -3.1967   -1.2878 C   0  0  0  0  0  0  0  0  0  0  0  0
   -3.5254   -2.7142   -1.2973 C   0  0  0  0  0  0  0  0  0  0  0  0
    0.7106   -0.4894    1.1889 N   0  0  0  0  0  0  0  0  0  0  0  0
    2.0538   -0.5998    1.1737 C   0  0  0  0  0  0  0  0  0  0  0  0
    2.6758   -0.2974    0.1774 O   0  0  0  0  0  0  0  0  0  0  0  0
    2.7826   -1.0990    2.3946 C   0  0  1  0  0  0  0  0  0  0  0  0
    4.1872   -1.1266    2.1327 O   0  0  0  0  0  0  0  0  0  0  0  0
    4.9940   -1.5557    3.1386 C   0  0  0  0  0  0  0  0  0  0  0  0
    4.4447   -1.9477    4.3508 C   0  0  0  0  0  0  0  0  0  0  0  0
    5.2669   -2.3840    5.3715 C   0  0  0  0  0  0  0  0  0  0  0  0
    6.6363   -2.4297    5.1861 C   0  0  0  0  0  0  0  0  0  0  0  0
    7.6823   -2.9860    6.4903 S   0  0  1  0  0  0  0  0  0  0  0  0
    8.9636   -2.4225    6.2452 O   0  0  0  0  0  0  0  0  0  0  0  0
    6.9615   -2.7818    7.6977 O   0  0  0  0  0  0  0  0  0  0  0  0
    7.8514   -4.6244    6.3181 N   0  0  0  0  0  0  0  0  0  0  0  0
    8.9424   -5.1667    5.5046 C   0  0  1  0  0  0  0  0  0  0  0  0
    6.9099   -5.5314    6.9792 C   0  0  1  0  0  0  0  0  0  0  0  0
    7.1862   -2.0400    3.9789 C   0  0  0  0  0  0  0  0  0  0  0  0
    6.3679   -1.6079    2.9532 C   0  0  0  0  0  0  0  0  0  0  0  0
    1.0039    1.9031    0.0027 H   0  0  0  0  0  0  0  0  0  0  0  0
   -0.5459    1.8868   -0.8726 H   0  0  0  0  0  0  0  0  0  0  0  0
   -0.5289    1.8773    0.9072 H   0  0  0  0  0  0  0  0  0  0  0  0
   -1.9156   -0.2570    0.9504 H   0  0  0  0  0  0  0  0  0  0  0  0
   -1.9862   -0.1019   -0.8214 H   0  0  0  0  0  0  0  0  0  0  0  0
   -0.9334   -2.3344   -1.0587 H   0  0  0  0  0  0  0  0  0  0  0  0
   -0.8628   -2.4894    0.7131 H   0  0  0  0  0  0  0  0  0  0  0  0
   -2.8901   -2.8082    2.0141 H   0  0  0  0  0  0  0  0  0  0  0  0
   -5.2000   -3.6608    2.0316 H   0  0  0  0  0  0  0  0  0  0  0  0
   -6.4363   -3.9103   -0.0832 H   0  0  0  0  0  0  0  0  0  0  0  0
   -5.3630   -3.3063   -2.2154 H   0  0  0  0  0  0  0  0  0  0  0  0
   -3.0546   -2.4493   -2.2324 H   0  0  0  0  0  0  0  0  0  0  0  0
    0.2131   -0.7312    1.9857 H   0  0  0  0  0  0  0  0  0  0  0  0
    2.5826   -0.4337    3.2345 H   0  0  0  0  0  0  0  0  0  0  0  0
    2.4385   -2.1044    2.6374 H   0  0  0  0  0  0  0  0  0  0  0  0
    3.3751   -1.9115    4.4963 H   0  0  0  0  0  0  0  0  0  0  0  0
    4.8397   -2.6892    6.3153 H   0  0  0  0  0  0  0  0  0  0  0  0
    9.8192   -5.3258    6.1323 H   0  0  0  0  0  0  0  0  0  0  0  0
    8.6321   -6.1153    5.0665 H   0  0  0  0  0  0  0  0  0  0  0  0
    9.1876   -4.4624    4.7096 H   0  0  0  0  0  0  0  0  0  0  0  0
    6.0702   -5.7317    6.3137 H   0  0  0  0  0  0  0  0  0  0  0  0
    7.4146   -6.4673    7.2191 H   0  0  0  0  0  0  0  0  0  0  0  0
    6.5444   -5.0701    7.8967 H   0  0  0  0  0  0  0  0  0  0  0  0
    8.2561   -2.0769    3.8363 H   0  0  0  0  0  0  0  0  0  0  0  0
    6.7979   -1.3036    2.0103 H   0  0  0  0  0  0  0  0  0  0  0  0
  1  2  1  0
  1 29  1  6
  1 30  1  0
  1 31  1  0
  2  3  1  6
  2  4  1  0
  2 12  1  0
  4  5  1  0
  4 32  1  1
  4 33  1  0
  5  6  1  0
  5 34  1  6
  5 35  1  0
  6 11  2  0
  6  7  1  0
  7  8  2  0
  7 36  1  0
  8  9  1  0
  8 37  1  0
  9 10  2  0
  9 38  1  0
 10 11  1  0
 10 39  1  0
 11 40  1  0
 12 13  1  0
 12 41  1  0
 13 14  2  0
 13 15  1  0
 15 16  1  0
 15 42  1  1
 15 43  1  0
 16 17  1  0
 17 28  2  0
 17 18  1  0
 18 19  2  0
 18 44  1  0
 19 20  1  0
 19 45  1  0
 20 21  1  0
 20 27  2  0
 21 22  2  0
 21 23  2  0
 21 24  1  6
 24 25  1  0
 24 26  1  0
 25 46  1  1
 25 47  1  0
 25 48  1  0
 26 49  1  6
 26 50  1  0
 26 51  1  0
 27 28  1  0
 27 52  1  0
 28 53  1  0
M  END
$$$$
