ZINC000096025561
     RDKit          3D

 46 48  0  0  1  0  0  0  0  0999 V2000
   -3.7248    2.1128   -2.0132 O   0  0  0  0  0  0  0  0  0  0  0  0
   -2.8445    1.3774   -1.1745 S   0  0  1  0  0  0  0  0  0  0  0  0
   -2.8183   -0.0430   -1.2062 O   0  0  0  0  0  0  0  0  0  0  0  0
   -1.1618    2.0476   -1.2745 C   0  0  1  0  0  0  0  0  0  0  0  0
   -0.5347    1.6535   -2.6133 C   0  0  1  0  0  0  0  0  0  0  0  0
   -0.4958    0.5675   -2.6989 H   0  0  0  0  0  0  0  0  0  0  0  0
   -1.3633    2.2421   -3.7746 C   0  0  1  0  0  0  0  0  0  0  0  0
   -0.2763    2.6637   -4.7983 C   0  0  1  0  0  0  0  0  0  0  0  0
    0.8639    3.1388   -3.8634 C   0  0  1  0  0  0  0  0  0  0  0  0
    0.8217    2.2118   -2.7137 N   0  0  0  0  0  0  0  0  0  0  0  0
    2.0896    1.8650   -1.7065 S   0  0  1  0  0  0  0  0  0  0  0  0
    1.7513    0.6584   -1.0364 O   0  0  0  0  0  0  0  0  0  0  0  0
    3.2710    2.0190   -2.4810 O   0  0  0  0  0  0  0  0  0  0  0  0
    2.1354    3.1229   -0.4736 C   0  0  0  0  0  0  0  0  0  0  0  0
    2.7804    4.3184   -0.7295 C   0  0  0  0  0  0  0  0  0  0  0  0
    2.8164    5.3053    0.2378 C   0  0  0  0  0  0  0  0  0  0  0  0
    2.2069    5.0968    1.4609 C   0  0  0  0  0  0  0  0  0  0  0  0
    2.2465    6.1725    2.5156 C   0  0  1  0  0  0  0  0  0  0  0  0
    1.1362    7.0108    2.3687 F   0  0  0  0  0  0  0  0  0  0  0  0
    2.2213    5.5830    3.7841 F   0  0  0  0  0  0  0  0  0  0  0  0
    3.4190    6.9223    2.3731 F   0  0  0  0  0  0  0  0  0  0  0  0
    1.5607    3.9018    1.7163 C   0  0  0  0  0  0  0  0  0  0  0  0
    1.5215    2.9164    0.7477 C   0  0  0  0  0  0  0  0  0  0  0  0
   -3.3760    1.7658    0.4600 C   0  0  0  0  0  0  0  0  0  0  0  0
   -3.0513    0.9273    1.5099 C   0  0  0  0  0  0  0  0  0  0  0  0
   -3.4682    1.2320    2.7922 C   0  0  0  0  0  0  0  0  0  0  0  0
   -4.2094    2.3754    3.0246 C   0  0  0  0  0  0  0  0  0  0  0  0
   -4.5333    3.2144    1.9748 C   0  0  0  0  0  0  0  0  0  0  0  0
   -4.1128    2.9119    0.6932 C   0  0  0  0  0  0  0  0  0  0  0  0
   -1.1982    3.1341   -1.1962 H   0  0  0  0  0  0  0  0  0  0  0  0
   -0.5611    1.6444   -0.4592 H   0  0  0  0  0  0  0  0  0  0  0  0
   -2.0218    1.4853   -4.2009 H   0  0  0  0  0  0  0  0  0  0  0  0
   -1.9347    3.1081   -3.4403 H   0  0  0  0  0  0  0  0  0  0  0  0
    0.0422    1.8139   -5.4022 H   0  0  0  0  0  0  0  0  0  0  0  0
   -0.6293    3.4791   -5.4295 H   0  0  0  0  0  0  0  0  0  0  0  0
    1.8256    3.0674   -4.3714 H   0  0  0  0  0  0  0  0  0  0  0  0
    0.6829    4.1620   -3.5341 H   0  0  0  0  0  0  0  0  0  0  0  0
    3.2566    4.4813   -1.6851 H   0  0  0  0  0  0  0  0  0  0  0  0
    3.3210    6.2391    0.0380 H   0  0  0  0  0  0  0  0  0  0  0  0
    1.0842    3.7391    2.6718 H   0  0  0  0  0  0  0  0  0  0  0  0
    1.0166    1.9828    0.9472 H   0  0  0  0  0  0  0  0  0  0  0  0
   -2.4722    0.0340    1.3283 H   0  0  0  0  0  0  0  0  0  0  0  0
   -3.2151    0.5765    3.6124 H   0  0  0  0  0  0  0  0  0  0  0  0
   -4.5358    2.6131    4.0263 H   0  0  0  0  0  0  0  0  0  0  0  0
   -5.1127    4.1076    2.1563 H   0  0  0  0  0  0  0  0  0  0  0  0
   -4.3658    3.5674   -0.1270 H   0  0  0  0  0  0  0  0  0  0  0  0
  1  2  2  0
  2  3  2  0
  2  4  1  0
  2 24  1  1
  4  5  1  0
  4 30  1  1
  4 31  1  0
  5  6  1  6
  5 10  1  0
  5  7  1  0
  7  8  1  0
  7 32  1  6
  7 33  1  0
  8  9  1  0
  8 34  1  6
  8 35  1  0
  9 10  1  0
  9 36  1  6
  9 37  1  0
 11 10  1  6
 11 12  2  0
 11 13  2  0
 11 14  1  0
 14 23  2  0
 14 15  1  0
 15 16  2  0
 15 38  1  0
 16 17  1  0
 16 39  1  0
 17 18  1  0
 17 22  2  0
 18 19  1  6
 18 20  1  0
 18 21  1  0
 22 23  1  0
 22 40  1  0
 23 41  1  0
 24 29  2  0
 24 25  1  0
 25 26  2  0
 25 42  1  0
 26 27  1  0
 26 43  1  0
 27 28  2  0
 27 44  1  0
 28 29  1  0
 28 45  1  0
 29 46  1  0
M  END
$$$$
