ZINC000013656164
     RDKit          3D

 51 53  0  0  1  0  0  0  0  0999 V2000
   -0.6338   -0.0619    0.6939 C   0  0  1  0  0  0  0  0  0  0  0  0
   -0.2523   -1.4390    0.7052 O   0  0  0  0  0  0  0  0  0  0  0  0
    0.3473   -1.9223   -0.4145 C   0  0  0  0  0  0  0  0  0  0  0  0
    0.5692   -1.0868   -1.4996 C   0  0  0  0  0  0  0  0  0  0  0  0
    1.1793   -1.5804   -2.6365 C   0  0  0  0  0  0  0  0  0  0  0  0
    1.5683   -2.9060   -2.6937 C   0  0  0  0  0  0  0  0  0  0  0  0
    2.2332   -3.4419   -3.9354 C   0  0  1  0  0  0  0  0  0  0  0  0
    3.6844   -3.2751   -3.8230 N   0  0  0  0  0  0  0  0  0  0  0  0
    4.3501   -2.1893   -4.2326 C   0  0  0  0  0  0  0  0  0  0  0  0
    3.8180   -1.2235   -4.7437 O   0  0  0  0  0  0  0  0  0  0  0  0
    5.6742   -2.2860   -4.0154 N   0  0  0  0  0  0  0  0  0  0  0  0
    5.9032   -3.5978   -3.3856 C   0  0  1  0  0  0  0  0  0  0  0  0
    6.7677   -4.4295   -4.2266 N   0  0  0  0  0  0  0  0  0  0  0  0
    6.9552   -5.7291   -3.9226 C   0  0  0  0  0  0  0  0  0  0  0  0
    6.3439   -6.2311   -3.0032 O   0  0  0  0  0  0  0  0  0  0  0  0
    7.9243   -6.5584   -4.7252 C   0  0  1  0  0  0  0  0  0  0  0  0
    9.3240   -5.9491   -4.6223 C   0  0  1  0  0  0  0  0  0  0  0  0
   10.3079   -6.7911   -5.4371 C   0  0  1  0  0  0  0  0  0  0  0  0
   10.3320   -8.2195   -4.8895 C   0  0  1  0  0  0  0  0  0  0  0  0
    8.9323   -8.8288   -4.9924 C   0  0  1  0  0  0  0  0  0  0  0  0
    7.9484   -7.9868   -4.1776 C   0  0  1  0  0  0  0  0  0  0  0  0
    6.5128   -3.4272   -1.9927 C   0  0  1  0  0  0  0  0  0  0  0  0
    5.7054   -2.5751   -1.2315 F   0  0  0  0  0  0  0  0  0  0  0  0
    6.5969   -4.6744   -1.3645 F   0  0  0  0  0  0  0  0  0  0  0  0
    7.7934   -2.8760   -2.1085 F   0  0  0  0  0  0  0  0  0  0  0  0
    4.5129   -4.1941   -3.2889 C   0  0  0  0  0  0  0  0  0  0  0  0
    4.2100   -5.2753   -2.8316 O   0  0  0  0  0  0  0  0  0  0  0  0
    1.3487   -3.7406   -1.6135 C   0  0  0  0  0  0  0  0  0  0  0  0
    0.7437   -3.2505   -0.4723 C   0  0  0  0  0  0  0  0  0  0  0  0
    0.2497    0.5586    0.5437 H   0  0  0  0  0  0  0  0  0  0  0  0
   -1.3421    0.1122   -0.1160 H   0  0  0  0  0  0  0  0  0  0  0  0
   -1.0998    0.1938    1.6455 H   0  0  0  0  0  0  0  0  0  0  0  0
    0.2649   -0.0515   -1.4557 H   0  0  0  0  0  0  0  0  0  0  0  0
    1.3523   -0.9304   -3.4815 H   0  0  0  0  0  0  0  0  0  0  0  0
    1.9966   -4.5001   -4.0463 H   0  0  0  0  0  0  0  0  0  0  0  0
    1.8711   -2.8954   -4.8062 H   0  0  0  0  0  0  0  0  0  0  0  0
    6.3470   -1.6217   -4.2319 H   0  0  0  0  0  0  0  0  0  0  0  0
    7.2052   -4.0448   -5.0021 H   0  0  0  0  0  0  0  0  0  0  0  0
    7.6109   -6.5746   -5.7690 H   0  0  0  0  0  0  0  0  0  0  0  0
    9.3068   -4.9314   -5.0124 H   0  0  0  0  0  0  0  0  0  0  0  0
    9.6373   -5.9328   -3.5784 H   0  0  0  0  0  0  0  0  0  0  0  0
    9.9945   -6.8073   -6.4809 H   0  0  0  0  0  0  0  0  0  0  0  0
   11.3050   -6.3570   -5.3638 H   0  0  0  0  0  0  0  0  0  0  0  0
   11.0329   -8.8194   -5.4700 H   0  0  0  0  0  0  0  0  0  0  0  0
   10.6453   -8.2033   -3.8457 H   0  0  0  0  0  0  0  0  0  0  0  0
    8.6189   -8.8451   -6.0363 H   0  0  0  0  0  0  0  0  0  0  0  0
    8.9494   -9.8465   -4.6023 H   0  0  0  0  0  0  0  0  0  0  0  0
    8.2617   -7.9706   -3.1338 H   0  0  0  0  0  0  0  0  0  0  0  0
    6.9512   -8.4209   -4.2509 H   0  0  0  0  0  0  0  0  0  0  0  0
    1.6538   -4.7755   -1.6605 H   0  0  0  0  0  0  0  0  0  0  0  0
    0.5724   -3.9028    0.3713 H   0  0  0  0  0  0  0  0  0  0  0  0
  1  2  1  0
  1 30  1  6
  1 31  1  0
  1 32  1  0
  2  3  1  0
  3 29  2  0
  3  4  1  0
  4  5  2  0
  4 33  1  0
  5  6  1  0
  5 34  1  0
  6  7  1  0
  6 28  2  0
  7  8  1  0
  7 35  1  6
  7 36  1  0
  8 26  1  0
  8  9  1  0
  9 10  2  0
  9 11  1  0
 11 12  1  0
 11 37  1  0
 12 13  1  6
 12 22  1  0
 12 26  1  0
 13 14  1  0
 13 38  1  0
 14 15  2  0
 14 16  1  0
 16 21  1  0
 16 17  1  0
 16 39  1  6
 17 18  1  0
 17 40  1  6
 17 41  1  0
 18 19  1  0
 18 42  1  6
 18 43  1  0
 19 20  1  0
 19 44  1  6
 19 45  1  0
 20 21  1  0
 20 46  1  6
 20 47  1  0
 21 48  1  1
 21 49  1  0
 22 23  1  1
 22 24  1  0
 22 25  1  0
 26 27  2  0
 28 29  1  0
 28 50  1  0
 29 51  1  0
M  END
$$$$
