ZINC000408613870
     RDKit          3D

 62 64  0  0  1  0  0  0  0  0999 V2000
   -3.5473   -9.2362   -0.1626 C   0  0  1  0  0  0  0  0  0  0  0  0
   -2.6357   -8.0369   -0.1211 C   0  0  0  0  0  0  0  0  0  0  0  0
   -2.3830   -7.4020    1.0805 C   0  0  0  0  0  0  0  0  0  0  0  0
   -1.5469   -6.3019    1.1186 C   0  0  0  0  0  0  0  0  0  0  0  0
   -0.9630   -5.8370   -0.0449 C   0  0  0  0  0  0  0  0  0  0  0  0
    0.1024   -4.4344    0.0035 S   0  0  1  0  0  0  0  0  0  0  0  0
   -0.0082   -3.8025   -1.2645 O   0  0  0  0  0  0  0  0  0  0  0  0
   -0.1663   -3.7685    1.2297 O   0  0  0  0  0  0  0  0  0  0  0  0
    1.6547   -5.0013    0.1096 N   0  0  0  0  0  0  0  0  0  0  0  0
    2.2185   -5.3527    1.4153 C   0  0  1  0  0  0  0  0  0  0  0  0
    2.0448   -6.8301    1.6563 C   0  0  0  0  0  0  0  0  0  0  0  0
    1.5033   -7.5215    0.8198 O   0  0  0  0  0  0  0  0  0  0  0  0
    2.4912   -7.3831    2.8015 N   0  0  0  0  0  0  0  0  0  0  0  0
    2.3223   -8.8194    3.0358 C   0  0  2  0  0  0  0  0  0  0  0  0
    2.4248   -9.3559    2.0926 H   0  0  0  0  0  0  0  0  0  0  0  0
    0.9338   -9.0805    3.6229 C   0  0  1  0  0  0  0  0  0  0  0  0
    3.3907   -9.3050    4.0175 C   0  0  1  0  0  0  0  0  0  0  0  0
    4.7736   -9.1589    3.3795 C   0  0  1  0  0  0  0  0  0  0  0  0
    5.8259   -9.6372    4.3464 C   0  0  0  0  0  0  0  0  0  0  0  0
    6.3947   -8.7518    5.2427 C   0  0  0  0  0  0  0  0  0  0  0  0
    7.3600   -9.1906    6.1296 C   0  0  0  0  0  0  0  0  0  0  0  0
    7.7561  -10.5149    6.1206 C   0  0  0  0  0  0  0  0  0  0  0  0
    7.1867  -11.4006    5.2249 C   0  0  0  0  0  0  0  0  0  0  0  0
    6.2183  -10.9627    4.3408 C   0  0  0  0  0  0  0  0  0  0  0  0
    2.4641   -5.1515   -1.1023 C   0  0  1  0  0  0  0  0  0  0  0  0
    3.3251   -3.9284   -1.2860 C   0  0  0  0  0  0  0  0  0  0  0  0
    2.8966   -2.8976   -2.1012 C   0  0  0  0  0  0  0  0  0  0  0  0
    3.6864   -1.7757   -2.2698 C   0  0  0  0  0  0  0  0  0  0  0  0
    4.9045   -1.6844   -1.6228 C   0  0  0  0  0  0  0  0  0  0  0  0
    5.3327   -2.7149   -0.8069 C   0  0  0  0  0  0  0  0  0  0  0  0
    4.5410   -3.8349   -0.6349 C   0  0  0  0  0  0  0  0  0  0  0  0
   -1.2146   -6.4727   -1.2464 C   0  0  0  0  0  0  0  0  0  0  0  0
   -2.0477   -7.5751   -1.2838 C   0  0  0  0  0  0  0  0  0  0  0  0
   -2.9618  -10.1430   -0.0107 H   0  0  0  0  0  0  0  0  0  0  0  0
   -4.2960   -9.1509    0.6250 H   0  0  0  0  0  0  0  0  0  0  0  0
   -4.0434   -9.2821   -1.1321 H   0  0  0  0  0  0  0  0  0  0  0  0
   -2.8392   -7.7653    1.9896 H   0  0  0  0  0  0  0  0  0  0  0  0
   -1.3500   -5.8055    2.0573 H   0  0  0  0  0  0  0  0  0  0  0  0
    3.2797   -5.1042    1.4315 H   0  0  0  0  0  0  0  0  0  0  0  0
    1.7026   -4.7940    2.1961 H   0  0  0  0  0  0  0  0  0  0  0  0
    2.9243   -6.8302    3.4705 H   0  0  0  0  0  0  0  0  0  0  0  0
    0.1727   -8.7345    2.9236 H   0  0  0  0  0  0  0  0  0  0  0  0
    0.8081  -10.1491    3.7973 H   0  0  0  0  0  0  0  0  0  0  0  0
    0.8313   -8.5439    4.5662 H   0  0  0  0  0  0  0  0  0  0  0  0
    3.3457   -8.7078    4.9282 H   0  0  0  0  0  0  0  0  0  0  0  0
    3.2115  -10.3524    4.2606 H   0  0  0  0  0  0  0  0  0  0  0  0
    4.8186   -9.7561    2.4688 H   0  0  0  0  0  0  0  0  0  0  0  0
    4.9528   -8.1115    3.1364 H   0  0  0  0  0  0  0  0  0  0  0  0
    6.0852   -7.7171    5.2498 H   0  0  0  0  0  0  0  0  0  0  0  0
    7.8049   -8.4986    6.8294 H   0  0  0  0  0  0  0  0  0  0  0  0
    8.5108  -10.8576    6.8130 H   0  0  0  0  0  0  0  0  0  0  0  0
    7.4964  -12.4352    5.2175 H   0  0  0  0  0  0  0  0  0  0  0  0
    5.7734  -11.6546    3.6411 H   0  0  0  0  0  0  0  0  0  0  0  0
    3.0993   -6.0322   -1.0081 H   0  0  0  0  0  0  0  0  0  0  0  0
    1.8083   -5.2671   -1.9652 H   0  0  0  0  0  0  0  0  0  0  0  0
    1.9448   -2.9689   -2.6067 H   0  0  0  0  0  0  0  0  0  0  0  0
    3.3518   -0.9706   -2.9072 H   0  0  0  0  0  0  0  0  0  0  0  0
    5.5219   -0.8082   -1.7550 H   0  0  0  0  0  0  0  0  0  0  0  0
    6.2846   -2.6437   -0.3016 H   0  0  0  0  0  0  0  0  0  0  0  0
    4.8755   -4.6400    0.0025 H   0  0  0  0  0  0  0  0  0  0  0  0
   -0.7581   -6.1096   -2.1554 H   0  0  0  0  0  0  0  0  0  0  0  0
   -2.2443   -8.0718   -2.2225 H   0  0  0  0  0  0  0  0  0  0  0  0
  1  2  1  0
  1 34  1  1
  1 35  1  0
  1 36  1  0
  2 33  2  0
  2  3  1  0
  3  4  2  0
  3 37  1  0
  4  5  1  0
  4 38  1  0
  5  6  1  0
  5 32  2  0
  6  7  2  0
  6  8  2  0
  6  9  1  1
  9 10  1  0
  9 25  1  0
 10 11  1  0
 10 39  1  6
 10 40  1  0
 11 12  2  0
 11 13  1  0
 13 14  1  0
 13 41  1  0
 14 15  1  6
 14 16  1  0
 14 17  1  0
 16 42  1  6
 16 43  1  0
 16 44  1  0
 17 18  1  0
 17 45  1  1
 17 46  1  0
 18 19  1  0
 18 47  1  6
 18 48  1  0
 19 24  2  0
 19 20  1  0
 20 21  2  0
 20 49  1  0
 21 22  1  0
 21 50  1  0
 22 23  2  0
 22 51  1  0
 23 24  1  0
 23 52  1  0
 24 53  1  0
 25 26  1  0
 25 54  1  1
 25 55  1  0
 26 31  2  0
 26 27  1  0
 27 28  2  0
 27 56  1  0
 28 29  1  0
 28 57  1  0
 29 30  2  0
 29 58  1  0
 30 31  1  0
 30 59  1  0
 31 60  1  0
 32 33  1  0
 32 61  1  0
 33 62  1  0
M  END
$$$$
