ZINC000000667521
     RDKit          3D

 55 57  0  0  1  0  0  0  0  0999 V2000
   -0.0178    1.4608    0.0101 C   0  0  1  0  0  0  0  0  0  0  0  0
    0.0021   -0.0041    0.0020 N   0  0  0  0  0  0  0  0  0  0  0  0
    0.0241   -0.7433    1.2666 C   0  0  1  0  0  0  0  0  0  0  0  0
   -1.3844   -0.9091    1.7762 C   0  0  0  0  0  0  0  0  0  0  0  0
   -1.9364    0.0485    2.6063 C   0  0  0  0  0  0  0  0  0  0  0  0
   -3.2284   -0.1036    3.0737 C   0  0  0  0  0  0  0  0  0  0  0  0
   -3.9686   -1.2132    2.7106 C   0  0  0  0  0  0  0  0  0  0  0  0
   -3.4169   -2.1704    1.8798 C   0  0  0  0  0  0  0  0  0  0  0  0
   -2.1264   -2.0161    1.4089 C   0  0  0  0  0  0  0  0  0  0  0  0
   -0.0004   -0.8243   -1.4366 S   0  0  1  0  0  0  0  0  0  0  0  0
   -0.5247   -2.1160   -1.1611 O   0  0  0  0  0  0  0  0  0  0  0  0
   -0.5660    0.0551   -2.3989 O   0  0  0  0  0  0  0  0  0  0  0  0
    1.6816   -1.0597   -1.9056 C   0  0  0  0  0  0  0  0  0  0  0  0
    2.3224   -0.1085   -2.6779 C   0  0  0  0  0  0  0  0  0  0  0  0
    3.6411   -0.2907   -3.0469 C   0  0  0  0  0  0  0  0  0  0  0  0
    4.3226   -1.4291   -2.6417 C   0  0  0  0  0  0  0  0  0  0  0  0
    5.6201   -1.6104   -3.0031 O   0  0  0  0  0  0  0  0  0  0  0  0
    6.2587   -2.8058   -2.5500 C   0  0  1  0  0  0  0  0  0  0  0  0
    7.6821   -2.8332   -3.0443 C   0  0  0  0  0  0  0  0  0  0  0  0
    8.1077   -1.9191   -3.7182 O   0  0  0  0  0  0  0  0  0  0  0  0
    8.4821   -3.8735   -2.7374 N   0  0  0  0  0  0  0  0  0  0  0  0
    9.8658   -3.9002   -3.2179 C   0  0  1  0  0  0  0  0  0  0  0  0
   10.5496   -5.1800   -2.7328 C   0  0  2  0  0  0  0  0  0  0  0  0
   10.4573   -5.2607   -1.6497 H   0  0  0  0  0  0  0  0  0  0  0  0
   12.0410   -5.1604   -3.1314 C   0  0  1  0  0  0  0  0  0  0  0  0
   12.2928   -6.6378   -3.5385 C   0  0  1  0  0  0  0  0  0  0  0  0
   10.9226   -7.0095   -4.1592 C   0  0  1  0  0  0  0  0  0  0  0  0
    9.9476   -6.3196   -3.3579 O   0  0  0  0  0  0  0  0  0  0  0  0
    3.6776   -2.3818   -1.8665 C   0  0  0  0  0  0  0  0  0  0  0  0
    2.3603   -2.1926   -1.4960 C   0  0  0  0  0  0  0  0  0  0  0  0
    1.0048    1.8381    0.0023 H   0  0  0  0  0  0  0  0  0  0  0  0
   -0.5450    1.8219   -0.8730 H   0  0  0  0  0  0  0  0  0  0  0  0
   -0.5280    1.8123    0.9069 H   0  0  0  0  0  0  0  0  0  0  0  0
    0.4703   -1.7247    1.1061 H   0  0  0  0  0  0  0  0  0  0  0  0
    0.6131   -0.1919    1.9996 H   0  0  0  0  0  0  0  0  0  0  0  0
   -1.3581    0.9154    2.8899 H   0  0  0  0  0  0  0  0  0  0  0  0
   -3.6594    0.6443    3.7228 H   0  0  0  0  0  0  0  0  0  0  0  0
   -4.9777   -1.3324    3.0763 H   0  0  0  0  0  0  0  0  0  0  0  0
   -3.9951   -3.0375    1.5964 H   0  0  0  0  0  0  0  0  0  0  0  0
   -1.6954   -2.7640    0.7598 H   0  0  0  0  0  0  0  0  0  0  0  0
    1.7914    0.7776   -2.9931 H   0  0  0  0  0  0  0  0  0  0  0  0
    4.1409    0.4522   -3.6507 H   0  0  0  0  0  0  0  0  0  0  0  0
    6.2520   -2.8307   -1.4603 H   0  0  0  0  0  0  0  0  0  0  0  0
    5.7231   -3.6729   -2.9365 H   0  0  0  0  0  0  0  0  0  0  0  0
    8.1417   -4.6046   -2.1984 H   0  0  0  0  0  0  0  0  0  0  0  0
    9.8725   -3.8753   -4.3076 H   0  0  0  0  0  0  0  0  0  0  0  0
   10.4014   -3.0331   -2.8314 H   0  0  0  0  0  0  0  0  0  0  0  0
   12.2081   -4.4915   -3.9756 H   0  0  0  0  0  0  0  0  0  0  0  0
   12.6655   -4.8799   -2.2832 H   0  0  0  0  0  0  0  0  0  0  0  0
   13.0913   -6.7112   -4.2768 H   0  0  0  0  0  0  0  0  0  0  0  0
   12.5090   -7.2544   -2.6660 H   0  0  0  0  0  0  0  0  0  0  0  0
   10.8714   -6.6703   -5.1938 H   0  0  0  0  0  0  0  0  0  0  0  0
   10.7622   -8.0863   -4.1048 H   0  0  0  0  0  0  0  0  0  0  0  0
    4.2059   -3.2690   -1.5500 H   0  0  0  0  0  0  0  0  0  0  0  0
    1.8578   -2.9338   -0.8923 H   0  0  0  0  0  0  0  0  0  0  0  0
  1  2  1  0
  1 31  1  6
  1 32  1  0
  1 33  1  0
  2  3  1  0
 10  2  1  1
  3  4  1  0
  3 34  1  6
  3 35  1  0
  4  9  2  0
  4  5  1  0
  5  6  2  0
  5 36  1  0
  6  7  1  0
  6 37  1  0
  7  8  2  0
  7 38  1  0
  8  9  1  0
  8 39  1  0
  9 40  1  0
 10 11  2  0
 10 12  2  0
 10 13  1  0
 13 30  2  0
 13 14  1  0
 14 15  2  0
 14 41  1  0
 15 16  1  0
 15 42  1  0
 16 17  1  0
 16 29  2  0
 17 18  1  0
 18 19  1  0
 18 43  1  1
 18 44  1  0
 19 20  2  0
 19 21  1  0
 21 22  1  0
 21 45  1  0
 22 23  1  0
 22 46  1  6
 22 47  1  0
 23 24  1  1
 23 28  1  0
 23 25  1  0
 25 26  1  0
 25 48  1  6
 25 49  1  0
 26 27  1  0
 26 50  1  6
 26 51  1  0
 27 28  1  0
 27 52  1  6
 27 53  1  0
 29 30  1  0
 29 54  1  0
 30 55  1  0
M  END
$$$$
