ZINC000012982507
     RDKit          3D

 37 39  0  0  1  0  0  0  0  0999 V2000
   -0.0187    1.5258    0.0104 C   0  0  1  0  0  0  0  0  0  0  0  0
    0.0021   -0.0041    0.0020 C   0  0  1  0  0  0  0  0  0  0  0  0
   -1.0184   -0.3871    0.0097 H   0  0  0  0  0  0  0  0  0  0  0  0
    0.7318   -0.5038   -1.2396 C   0  0  0  0  0  0  0  0  0  0  0  0
    1.9558   -1.0623   -1.1866 C   0  0  0  0  0  0  0  0  0  0  0  0
    2.7596   -1.2796    0.0778 C   0  0  1  0  0  0  0  0  0  0  0  0
    2.1959   -0.3881    1.1887 C   0  0  1  0  0  0  0  0  0  0  0  0
    0.7284   -0.4986    1.1802 N   0  0  0  0  0  0  0  0  0  0  0  0
   -0.0814   -1.1625    2.4631 S   0  0  1  0  0  0  0  0  0  0  0  0
   -1.3258   -1.6250    1.9563 O   0  0  0  0  0  0  0  0  0  0  0  0
    0.8473   -2.0055    3.1310 O   0  0  0  0  0  0  0  0  0  0  0  0
   -0.4550    0.1487    3.5792 C   0  0  0  0  0  0  0  0  0  0  0  0
    0.4418    0.4845    4.5761 C   0  0  0  0  0  0  0  0  0  0  0  0
    0.1487    1.5133    5.4517 C   0  0  0  0  0  0  0  0  0  0  0  0
   -1.0411    2.2065    5.3300 C   0  0  0  0  0  0  0  0  0  0  0  0
   -1.3609    3.3277    6.2849 C   0  0  1  0  0  0  0  0  0  0  0  0
   -0.8762    4.5337    5.7672 F   0  0  0  0  0  0  0  0  0  0  0  0
   -2.7469    3.4160    6.4530 F   0  0  0  0  0  0  0  0  0  0  0  0
   -0.7563    3.0744    7.5208 F   0  0  0  0  0  0  0  0  0  0  0  0
   -1.9373    1.8716    4.3323 C   0  0  0  0  0  0  0  0  0  0  0  0
   -1.6425    0.8454    3.4543 C   0  0  0  0  0  0  0  0  0  0  0  0
    2.4810   -1.5041   -2.8063 S   0  0  0  0  0  0  0  0  0  0  0  0
    0.9794   -0.9040   -3.4939 C   0  0  0  0  0  0  0  0  0  0  0  0
    0.2047   -0.4270   -2.5249 C   0  0  0  0  0  0  0  0  0  0  0  0
    1.0039    1.9031    0.0027 H   0  0  0  0  0  0  0  0  0  0  0  0
   -0.5459    1.8868   -0.8726 H   0  0  0  0  0  0  0  0  0  0  0  0
   -0.5289    1.8773    0.9072 H   0  0  0  0  0  0  0  0  0  0  0  0
    2.6901   -2.3249    0.3788 H   0  0  0  0  0  0  0  0  0  0  0  0
    3.8025   -1.0200   -0.1040 H   0  0  0  0  0  0  0  0  0  0  0  0
    2.5818   -0.7175    2.1535 H   0  0  0  0  0  0  0  0  0  0  0  0
    2.4859    0.6472    1.0097 H   0  0  0  0  0  0  0  0  0  0  0  0
    1.3713   -0.0571    4.6711 H   0  0  0  0  0  0  0  0  0  0  0  0
    0.8490    1.7752    6.2310 H   0  0  0  0  0  0  0  0  0  0  0  0
   -2.8667    2.4135    4.2370 H   0  0  0  0  0  0  0  0  0  0  0  0
   -2.3426    0.5838    2.6748 H   0  0  0  0  0  0  0  0  0  0  0  0
    0.7251   -0.9200   -4.5434 H   0  0  0  0  0  0  0  0  0  0  0  0
   -0.7706   -0.0074   -2.7223 H   0  0  0  0  0  0  0  0  0  0  0  0
  1  2  1  0
  1 25  1  6
  1 26  1  0
  1 27  1  0
  2  3  1  1
  2  8  1  0
  2  4  1  0
  4 24  1  0
  4  5  2  0
  5  6  1  0
  5 22  1  0
  6  7  1  0
  6 28  1  1
  6 29  1  0
  7  8  1  0
  7 30  1  1
  7 31  1  0
  9  8  1  6
  9 10  2  0
  9 11  2  0
  9 12  1  0
 12 21  2  0
 12 13  1  0
 13 14  2  0
 13 32  1  0
 14 15  1  0
 14 33  1  0
 15 16  1  0
 15 20  2  0
 16 17  1  6
 16 18  1  0
 16 19  1  0
 20 21  1  0
 20 34  1  0
 21 35  1  0
 22 23  1  0
 23 24  2  0
 23 36  1  0
 24 37  1  0
M  END
$$$$
