ZINC000060348751
     RDKit          3D

 42 44  0  0  1  0  0  0  0  0999 V2000
   -0.1618    0.1401   -0.2290 O   0  0  0  0  0  0  0  0  0  0  0  0
   -0.3292    1.5512   -0.2299 S   0  0  1  0  0  0  0  0  0  0  0  0
    0.7464    2.4614   -0.4141 O   0  0  0  0  0  0  0  0  0  0  0  0
   -1.5072    1.9117   -1.4897 C   0  0  0  0  0  0  0  0  0  0  0  0
   -2.4079    0.9430   -1.8913 C   0  0  0  0  0  0  0  0  0  0  0  0
   -3.3321    1.2258   -2.8797 C   0  0  0  0  0  0  0  0  0  0  0  0
   -3.3558    2.4773   -3.4662 C   0  0  0  0  0  0  0  0  0  0  0  0
   -4.3629    2.7854   -4.5440 C   0  0  1  0  0  0  0  0  0  0  0  0
   -5.5287    3.2939   -3.9613 F   0  0  0  0  0  0  0  0  0  0  0  0
   -3.8294    3.7335   -5.4236 F   0  0  0  0  0  0  0  0  0  0  0  0
   -4.6657    1.6148   -5.2477 F   0  0  0  0  0  0  0  0  0  0  0  0
   -2.4559    3.4464   -3.0637 C   0  0  0  0  0  0  0  0  0  0  0  0
   -1.5343    3.1648   -2.0726 C   0  0  0  0  0  0  0  0  0  0  0  0
   -1.0279    1.9402    1.2202 N   0  0  0  0  0  0  0  0  0  0  0  0
   -0.7663    3.2405    1.8523 C   0  0  1  0  0  0  0  0  0  0  0  0
   -0.2773    3.0031    3.2845 C   0  0  1  0  0  0  0  0  0  0  0  0
   -1.2944    2.1354    4.0293 C   0  0  1  0  0  0  0  0  0  0  0  0
   -1.4195    0.7796    3.3306 C   0  0  1  0  0  0  0  0  0  0  0  0
   -1.9259    0.9941    1.8962 C   0  0  2  0  0  0  0  0  0  0  0  0
   -2.9381    1.3978    1.9225 H   0  0  0  0  0  0  0  0  0  0  0  0
   -1.9253   -0.3401    1.1472 C   0  0  1  0  0  0  0  0  0  0  0  0
   -0.7143   -1.0712    1.4362 O   0  0  0  0  0  0  0  0  0  0  0  0
   -1.0719   -2.4403    1.1272 C   0  0  1  0  0  0  0  0  0  0  0  0
   -2.5426   -2.5257    1.5911 C   0  0  1  0  0  0  0  0  0  0  0  0
   -3.0102   -1.1649    1.6055 O   0  0  0  0  0  0  0  0  0  0  0  0
   -2.3894   -0.0348   -1.4331 H   0  0  0  0  0  0  0  0  0  0  0  0
   -4.0354    0.4688   -3.1939 H   0  0  0  0  0  0  0  0  0  0  0  0
   -2.4747    4.4243   -3.5216 H   0  0  0  0  0  0  0  0  0  0  0  0
   -0.8312    3.9220   -1.7581 H   0  0  0  0  0  0  0  0  0  0  0  0
   -0.0007    3.7735    1.2884 H   0  0  0  0  0  0  0  0  0  0  0  0
   -1.6840    3.8283    1.8723 H   0  0  0  0  0  0  0  0  0  0  0  0
    0.6864    2.4943    3.2603 H   0  0  0  0  0  0  0  0  0  0  0  0
   -0.1713    3.9597    3.7961 H   0  0  0  0  0  0  0  0  0  0  0  0
   -0.9609    1.9853    5.0561 H   0  0  0  0  0  0  0  0  0  0  0  0
   -2.2639    2.6335    4.0318 H   0  0  0  0  0  0  0  0  0  0  0  0
   -0.4451    0.2917    3.3059 H   0  0  0  0  0  0  0  0  0  0  0  0
   -2.1266    0.1536    3.8750 H   0  0  0  0  0  0  0  0  0  0  0  0
   -2.0131   -0.1673    0.0745 H   0  0  0  0  0  0  0  0  0  0  0  0
   -0.9937   -2.6271    0.0562 H   0  0  0  0  0  0  0  0  0  0  0  0
   -0.4494   -3.1376    1.6880 H   0  0  0  0  0  0  0  0  0  0  0  0
   -3.1273   -3.1194    0.8885 H   0  0  0  0  0  0  0  0  0  0  0  0
   -2.5998   -2.9561    2.5909 H   0  0  0  0  0  0  0  0  0  0  0  0
  1  2  2  0
  2  3  2  0
  2  4  1  0
  2 14  1  1
  4 13  2  0
  4  5  1  0
  5  6  2  0
  5 26  1  0
  6  7  1  0
  6 27  1  0
  7  8  1  0
  7 12  2  0
  8  9  1  1
  8 10  1  0
  8 11  1  0
 12 13  1  0
 12 28  1  0
 13 29  1  0
 14 19  1  0
 14 15  1  0
 15 16  1  0
 15 30  1  6
 15 31  1  0
 16 17  1  0
 16 32  1  6
 16 33  1  0
 17 18  1  0
 17 34  1  1
 17 35  1  0
 18 19  1  0
 18 36  1  6
 18 37  1  0
 19 20  1  1
 19 21  1  0
 21 25  1  0
 21 22  1  0
 21 38  1  6
 22 23  1  0
 23 24  1  0
 23 39  1  6
 23 40  1  0
 24 25  1  0
 24 41  1  6
 24 42  1  0
M  END
$$$$
