ZINC000013267704
     RDKit          3D

 35 36  0  0  1  0  0  0  0  0999 V2000
    0.0021   -0.0041    0.0020 O   0  0  0  0  0  0  0  0  0  0  0  0
   -0.0145    1.2150    0.0087 C   0  0  0  0  0  0  0  0  0  0  0  0
    1.0330    1.8389    0.0021 O   0  0  0  0  0  0  0  0  0  0  0  0
   -1.3296    1.9507    0.0190 C   0  0  1  0  0  0  0  0  0  0  0  0
   -1.6520    2.1339   -1.0060 H   0  0  0  0  0  0  0  0  0  0  0  0
   -2.3815    1.1065    0.7421 C   0  0  1  0  0  0  0  0  0  0  0  0
   -3.7256    1.8382    0.7244 C   0  0  1  0  0  0  0  0  0  0  0  0
   -3.5856    3.1729    1.4630 C   0  0  1  0  0  0  0  0  0  0  0  0
   -2.4781    3.9307    0.8646 N   0  0  0  0  0  0  0  0  0  0  0  0
   -2.7082    5.4812    0.3305 S   0  0  1  0  0  0  0  0  0  0  0  0
   -1.7024    5.7234   -0.6436 O   0  0  0  0  0  0  0  0  0  0  0  0
   -4.0975    5.6111    0.0620 O   0  0  0  0  0  0  0  0  0  0  0  0
   -2.3602    6.5557    1.6828 C   0  0  0  0  0  0  0  0  0  0  0  0
   -3.3697    6.9189    2.5546 C   0  0  0  0  0  0  0  0  0  0  0  0
   -3.0967    7.7620    3.6155 C   0  0  0  0  0  0  0  0  0  0  0  0
   -1.8140    8.2415    3.8050 C   0  0  0  0  0  0  0  0  0  0  0  0
   -1.5165    9.1609    4.9613 C   0  0  1  0  0  0  0  0  0  0  0  0
   -1.1465    8.4024    6.0771 F   0  0  0  0  0  0  0  0  0  0  0  0
   -0.4698   10.0221    4.6150 F   0  0  0  0  0  0  0  0  0  0  0  0
   -2.6570    9.9119    5.2654 F   0  0  0  0  0  0  0  0  0  0  0  0
   -0.8043    7.8772    2.9341 C   0  0  0  0  0  0  0  0  0  0  0  0
   -1.0765    7.0311    1.8753 C   0  0  0  0  0  0  0  0  0  0  0  0
   -1.1623    3.2871    0.7489 C   0  0  1  0  0  0  0  0  0  0  0  0
   -2.4847    0.1453    0.2385 H   0  0  0  0  0  0  0  0  0  0  0  0
   -2.0701    0.9440    1.7740 H   0  0  0  0  0  0  0  0  0  0  0  0
   -4.0257    2.0229   -0.3071 H   0  0  0  0  0  0  0  0  0  0  0  0
   -4.4796    1.2260    1.2191 H   0  0  0  0  0  0  0  0  0  0  0  0
   -4.5106    3.7417    1.3684 H   0  0  0  0  0  0  0  0  0  0  0  0
   -3.3744    2.9874    2.5161 H   0  0  0  0  0  0  0  0  0  0  0  0
   -4.3718    6.5443    2.4065 H   0  0  0  0  0  0  0  0  0  0  0  0
   -3.8855    8.0463    4.2962 H   0  0  0  0  0  0  0  0  0  0  0  0
    0.1979    8.2515    3.0823 H   0  0  0  0  0  0  0  0  0  0  0  0
   -0.2876    6.7465    1.1949 H   0  0  0  0  0  0  0  0  0  0  0  0
   -0.7531    3.1106    1.7436 H   0  0  0  0  0  0  0  0  0  0  0  0
   -0.4889    3.9313    0.1836 H   0  0  0  0  0  0  0  0  0  0  0  0
  1  2  2  0
  2  3  1  0
  2  4  1  0
  4  5  1  6
  4 23  1  0
  4  6  1  0
  6  7  1  0
  6 24  1  6
  6 25  1  0
  7  8  1  0
  7 26  1  6
  7 27  1  0
  8  9  1  0
  8 28  1  1
  8 29  1  0
 10  9  1  1
  9 23  1  0
 10 11  2  0
 10 12  2  0
 10 13  1  0
 13 22  2  0
 13 14  1  0
 14 15  2  0
 14 30  1  0
 15 16  1  0
 15 31  1  0
 16 17  1  0
 16 21  2  0
 17 18  1  1
 17 19  1  0
 17 20  1  0
 21 22  1  0
 21 32  1  0
 22 33  1  0
 23 34  1  1
 23 35  1  0
M  END
$$$$
