ZINC000002878041
     RDKit          3D

 46 47  0  0  0  0  0  0  0  0999 V2000
   -0.0187    1.5258    0.0104 C   0  0  1  0  0  0  0  0  0  0  0  0
    0.0021   -0.0041    0.0020 C   0  0  1  0  0  0  0  0  0  0  0  0
    0.7106   -0.4894    1.1889 N   0  0  0  0  0  0  0  0  0  0  0  0
   -0.0062   -0.6460    2.4569 C   0  0  1  0  0  0  0  0  0  0  0  0
   -0.6831   -1.9920    2.4883 C   0  0  0  0  0  0  0  0  0  0  0  0
   -0.5773   -2.7462    1.5445 O   0  0  0  0  0  0  0  0  0  0  0  0
   -1.4062   -2.3577    3.5653 N   0  0  0  0  0  0  0  0  0  0  0  0
   -2.0643   -3.6662    3.5959 C   0  0  1  0  0  0  0  0  0  0  0  0
   -2.8129   -3.8298    4.9202 C   0  0  1  0  0  0  0  0  0  0  0  0
   -3.4899   -5.1758    4.9516 C   0  0  0  0  0  0  0  0  0  0  0  0
   -4.7771   -5.3135    4.4669 C   0  0  0  0  0  0  0  0  0  0  0  0
   -5.3981   -6.5482    4.4957 C   0  0  0  0  0  0  0  0  0  0  0  0
   -4.7317   -7.6452    5.0088 C   0  0  0  0  0  0  0  0  0  0  0  0
   -3.4441   -7.5077    5.4927 C   0  0  0  0  0  0  0  0  0  0  0  0
   -2.8216   -6.2739    5.4599 C   0  0  0  0  0  0  0  0  0  0  0  0
    2.3218   -0.8609    1.0971 S   0  0  1  0  0  0  0  0  0  0  0  0
    2.5823   -1.7795    2.1496 O   0  0  0  0  0  0  0  0  0  0  0  0
    2.5905   -1.1471   -0.2686 O   0  0  0  0  0  0  0  0  0  0  0  0
    3.2182    0.6060    1.4837 C   0  0  0  0  0  0  0  0  0  0  0  0
    3.5687    1.4871    0.4779 C   0  0  0  0  0  0  0  0  0  0  0  0
    4.2720    2.6379    0.7812 C   0  0  0  0  0  0  0  0  0  0  0  0
    4.6242    2.9079    2.0903 C   0  0  0  0  0  0  0  0  0  0  0  0
    4.2728    2.0272    3.0963 C   0  0  0  0  0  0  0  0  0  0  0  0
    3.5659    0.8785    2.7936 C   0  0  0  0  0  0  0  0  0  0  0  0
    1.0039    1.9031    0.0027 H   0  0  0  0  0  0  0  0  0  0  0  0
   -0.5459    1.8868   -0.8726 H   0  0  0  0  0  0  0  0  0  0  0  0
   -0.5289    1.8773    0.9072 H   0  0  0  0  0  0  0  0  0  0  0  0
   -1.0205   -0.3814    0.0098 H   0  0  0  0  0  0  0  0  0  0  0  0
    0.5123   -0.3556   -0.8948 H   0  0  0  0  0  0  0  0  0  0  0  0
    0.6997   -0.5749    3.2845 H   0  0  0  0  0  0  0  0  0  0  0  0
   -0.7557    0.1399    2.5501 H   0  0  0  0  0  0  0  0  0  0  0  0
   -1.4909   -1.7545    4.3202 H   0  0  0  0  0  0  0  0  0  0  0  0
   -2.7702   -3.7373    2.7683 H   0  0  0  0  0  0  0  0  0  0  0  0
   -1.3148   -4.4521    3.5027 H   0  0  0  0  0  0  0  0  0  0  0  0
   -2.1071   -3.7586    5.7477 H   0  0  0  0  0  0  0  0  0  0  0  0
   -3.5624   -3.0438    5.0134 H   0  0  0  0  0  0  0  0  0  0  0  0
   -5.2978   -4.4564    4.0660 H   0  0  0  0  0  0  0  0  0  0  0  0
   -6.4041   -6.6556    4.1177 H   0  0  0  0  0  0  0  0  0  0  0  0
   -5.2171   -8.6097    5.0320 H   0  0  0  0  0  0  0  0  0  0  0  0
   -2.9236   -8.3647    5.8939 H   0  0  0  0  0  0  0  0  0  0  0  0
   -1.8156   -6.1664    5.8380 H   0  0  0  0  0  0  0  0  0  0  0  0
    3.2935    1.2761   -0.5449 H   0  0  0  0  0  0  0  0  0  0  0  0
    4.5465    3.3259   -0.0048 H   0  0  0  0  0  0  0  0  0  0  0  0
    5.1742    3.8066    2.3272 H   0  0  0  0  0  0  0  0  0  0  0  0
    4.5483    2.2380    4.1191 H   0  0  0  0  0  0  0  0  0  0  0  0
    3.2914    0.1905    3.5795 H   0  0  0  0  0  0  0  0  0  0  0  0
  1  2  1  0
  1 25  1  6
  1 26  1  0
  1 27  1  0
  2  3  1  0
  2 28  1  1
  2 29  1  0
  3  4  1  0
 16  3  1  6
  4  5  1  0
  4 30  1  1
  4 31  1  0
  5  6  2  0
  5  7  1  0
  7  8  1  0
  7 32  1  0
  8  9  1  0
  8 33  1  6
  8 34  1  0
  9 10  1  0
  9 35  1  1
  9 36  1  0
 10 15  2  0
 10 11  1  0
 11 12  2  0
 11 37  1  0
 12 13  1  0
 12 38  1  0
 13 14  2  0
 13 39  1  0
 14 15  1  0
 14 40  1  0
 15 41  1  0
 16 17  2  0
 16 18  2  0
 16 19  1  0
 19 24  2  0
 19 20  1  0
 20 21  2  0
 20 42  1  0
 21 22  1  0
 21 43  1  0
 22 23  2  0
 22 44  1  0
 23 24  1  0
 23 45  1  0
 24 46  1  0
M  END
$$$$
