ZINC000226010985
     RDKit          3D

 62 64  0  0  0  0  0  0  0  0999 V2000
   -9.4634   -6.5717    3.6176 C   0  0  1  0  0  0  0  0  0  0  0  0
   -9.4893   -5.1637    3.3748 O   0  0  0  0  0  0  0  0  0  0  0  0
   -8.4932   -4.6518    2.6033 C   0  0  0  0  0  0  0  0  0  0  0  0
   -7.5162   -5.4871    2.0869 C   0  0  0  0  0  0  0  0  0  0  0  0
   -6.5043   -4.9650    1.3022 C   0  0  0  0  0  0  0  0  0  0  0  0
   -6.4644   -3.6103    1.0316 C   0  0  0  0  0  0  0  0  0  0  0  0
   -5.1721   -2.9512    0.0316 S   0  0  1  0  0  0  0  0  0  0  0  0
   -5.1364   -1.5546    0.2912 O   0  0  0  0  0  0  0  0  0  0  0  0
   -4.0501   -3.8042    0.2123 O   0  0  0  0  0  0  0  0  0  0  0  0
   -5.6393   -3.1214   -1.5480 N   0  0  0  0  0  0  0  0  0  0  0  0
   -5.3924   -4.3815   -2.2532 C   0  0  1  0  0  0  0  0  0  0  0  0
   -6.6202   -5.2515   -2.1720 C   0  0  0  0  0  0  0  0  0  0  0  0
   -7.6047   -4.8577   -1.5831 O   0  0  0  0  0  0  0  0  0  0  0  0
   -6.6244   -6.4672   -2.7539 N   0  0  0  0  0  0  0  0  0  0  0  0
   -7.7289   -7.3125   -2.6004 C   0  0  0  0  0  0  0  0  0  0  0  0
   -7.5460   -8.6857   -2.5038 C   0  0  0  0  0  0  0  0  0  0  0  0
   -8.6382   -9.5174   -2.3525 C   0  0  0  0  0  0  0  0  0  0  0  0
   -9.9129   -8.9840   -2.2975 C   0  0  0  0  0  0  0  0  0  0  0  0
  -11.1024   -9.8945   -2.1328 C   0  0  1  0  0  0  0  0  0  0  0  0
  -11.3905  -10.0842   -0.6658 C   0  0  0  0  0  0  0  0  0  0  0  0
  -12.4176  -10.8650   -0.2762 N   0  0  0  0  0  0  0  0  0  0  0  0
  -10.6980   -9.5342    0.1642 O   0  0  0  0  0  0  0  0  0  0  0  0
  -10.0983   -7.6170   -2.3930 C   0  0  0  0  0  0  0  0  0  0  0  0
   -9.0097   -6.7795   -2.5387 C   0  0  0  0  0  0  0  0  0  0  0  0
   -6.2995   -2.0118   -2.2402 C   0  0  1  0  0  0  0  0  0  0  0  0
   -5.2942   -1.2832   -3.0943 C   0  0  0  0  0  0  0  0  0  0  0  0
   -4.5017   -0.2960   -2.5390 C   0  0  0  0  0  0  0  0  0  0  0  0
   -3.5795    0.3723   -3.3225 C   0  0  0  0  0  0  0  0  0  0  0  0
   -3.4495    0.0531   -4.6612 C   0  0  0  0  0  0  0  0  0  0  0  0
   -4.2413   -0.9347   -5.2163 C   0  0  0  0  0  0  0  0  0  0  0  0
   -5.1605   -1.6060   -4.4318 C   0  0  0  0  0  0  0  0  0  0  0  0
   -7.4369   -2.7709    1.5437 C   0  0  0  0  0  0  0  0  0  0  0  0
   -8.4563   -3.2882    2.3261 C   0  0  0  0  0  0  0  0  0  0  0  0
   -9.4134   -2.4642    2.8304 O   0  0  0  0  0  0  0  0  0  0  0  0
   -9.3061   -1.0749    2.5134 C   0  0  1  0  0  0  0  0  0  0  0  0
  -10.3111   -6.8479    4.2446 H   0  0  0  0  0  0  0  0  0  0  0  0
   -9.5241   -7.1051    2.6690 H   0  0  0  0  0  0  0  0  0  0  0  0
   -8.5352   -6.8360    4.1243 H   0  0  0  0  0  0  0  0  0  0  0  0
   -7.5446   -6.5460    2.2974 H   0  0  0  0  0  0  0  0  0  0  0  0
   -5.7432   -5.6174    0.9002 H   0  0  0  0  0  0  0  0  0  0  0  0
   -5.1625   -4.1740   -3.2983 H   0  0  0  0  0  0  0  0  0  0  0  0
   -4.5505   -4.8973   -1.7915 H   0  0  0  0  0  0  0  0  0  0  0  0
   -5.8618   -6.7562   -3.2790 H   0  0  0  0  0  0  0  0  0  0  0  0
   -6.5508   -9.1029   -2.5474 H   0  0  0  0  0  0  0  0  0  0  0  0
   -8.4967  -10.5854   -2.2773 H   0  0  0  0  0  0  0  0  0  0  0  0
  -11.9706   -9.4495   -2.6190 H   0  0  0  0  0  0  0  0  0  0  0  0
  -10.8863  -10.8607   -2.5886 H   0  0  0  0  0  0  0  0  0  0  0  0
  -12.9714  -11.3048   -0.9400 H   0  0  0  0  0  0  0  0  0  0  0  0
  -12.6030  -10.9871    0.6681 H   0  0  0  0  0  0  0  0  0  0  0  0
  -11.0951   -7.2035   -2.3497 H   0  0  0  0  0  0  0  0  0  0  0  0
   -9.1552   -5.7120   -2.6132 H   0  0  0  0  0  0  0  0  0  0  0  0
   -7.0983   -2.4012   -2.8714 H   0  0  0  0  0  0  0  0  0  0  0  0
   -6.7191   -1.3238   -1.5062 H   0  0  0  0  0  0  0  0  0  0  0  0
   -4.6033   -0.0467   -1.4931 H   0  0  0  0  0  0  0  0  0  0  0  0
   -2.9609    1.1440   -2.8888 H   0  0  0  0  0  0  0  0  0  0  0  0
   -2.7295    0.5757   -5.2734 H   0  0  0  0  0  0  0  0  0  0  0  0
   -4.1400   -1.1838   -6.2623 H   0  0  0  0  0  0  0  0  0  0  0  0
   -5.7791   -2.3777   -4.8655 H   0  0  0  0  0  0  0  0  0  0  0  0
   -7.4035   -1.7127    1.3308 H   0  0  0  0  0  0  0  0  0  0  0  0
  -10.1298   -0.5319    2.9767 H   0  0  0  0  0  0  0  0  0  0  0  0
   -8.3589   -0.6885    2.8898 H   0  0  0  0  0  0  0  0  0  0  0  0
   -9.3477   -0.9447    1.4320 H   0  0  0  0  0  0  0  0  0  0  0  0
  1  2  1  0
  1 36  1  1
  1 37  1  0
  1 38  1  0
  2  3  1  0
  3 33  2  0
  3  4  1  0
  4  5  2  0
  4 39  1  0
  5  6  1  0
  5 40  1  0
  6  7  1  0
  6 32  2  0
  7  8  2  0
  7  9  2  0
  7 10  1  6
 10 11  1  0
 10 25  1  0
 11 12  1  0
 11 41  1  6
 11 42  1  0
 12 13  2  0
 12 14  1  0
 14 15  1  0
 14 43  1  0
 15 24  2  0
 15 16  1  0
 16 17  2  0
 16 44  1  0
 17 18  1  0
 17 45  1  0
 18 19  1  0
 18 23  2  0
 19 20  1  0
 19 46  1  6
 19 47  1  0
 20 21  1  0
 20 22  2  0
 21 48  1  0
 21 49  1  0
 23 24  1  0
 23 50  1  0
 24 51  1  0
 25 26  1  0
 25 52  1  6
 25 53  1  0
 26 31  2  0
 26 27  1  0
 27 28  2  0
 27 54  1  0
 28 29  1  0
 28 55  1  0
 29 30  2  0
 29 56  1  0
 30 31  1  0
 30 57  1  0
 31 58  1  0
 32 33  1  0
 32 59  1  0
 33 34  1  0
 34 35  1  0
 35 60  1  1
 35 61  1  0
 35 62  1  0
M  END
$$$$
