ZINC000009058058
     RDKit          3D

 45 47  0  0  0  0  0  0  0  0999 V2000
    0.0021   -0.0041    0.0020 O   0  0  0  0  0  0  0  0  0  0  0  0
   -0.0172    1.4168    0.0098 S   0  0  1  0  0  0  0  0  0  0  0  0
    1.1617    2.2101    0.0028 O   0  0  0  0  0  0  0  0  0  0  0  0
   -0.9567    1.9094   -1.3970 C   0  0  0  0  0  0  0  0  0  0  0  0
   -1.8848    1.0442   -1.9458 C   0  0  0  0  0  0  0  0  0  0  0  0
   -2.6219    1.4307   -3.0496 C   0  0  0  0  0  0  0  0  0  0  0  0
   -2.4313    2.6825   -3.6042 C   0  0  0  0  0  0  0  0  0  0  0  0
   -3.2345    3.1036   -4.8078 C   0  0  1  0  0  0  0  0  0  0  0  0
   -4.4138    3.7273   -4.3864 F   0  0  0  0  0  0  0  0  0  0  0  0
   -2.4843    3.9973   -5.5796 F   0  0  0  0  0  0  0  0  0  0  0  0
   -3.5510    1.9771   -5.5746 F   0  0  0  0  0  0  0  0  0  0  0  0
   -1.5042    3.5481   -3.0546 C   0  0  0  0  0  0  0  0  0  0  0  0
   -0.7699    3.1631   -1.9485 C   0  0  0  0  0  0  0  0  0  0  0  0
   -0.8748    1.8654    1.3536 N   0  0  0  0  0  0  0  0  0  0  0  0
   -0.6796    3.1911    1.9573 C   0  0  1  0  0  0  0  0  0  0  0  0
   -2.0388    3.8966    2.0404 C   0  0  1  0  0  0  0  0  0  0  0  0
   -3.0091    2.9765    2.6503 N   0  0  0  0  0  0  0  0  0  0  0  0
   -3.8674    3.4255    3.9934 S   0  0  1  0  0  0  0  0  0  0  0  0
   -4.2585    2.2224    4.6404 O   0  0  0  0  0  0  0  0  0  0  0  0
   -3.1076    4.4411    4.6341 O   0  0  0  0  0  0  0  0  0  0  0  0
   -5.3506    4.1933    3.4318 C   0  0  0  0  0  0  0  0  0  0  0  0
   -6.5745    3.6101    3.6985 C   0  0  0  0  0  0  0  0  0  0  0  0
   -7.7386    4.2123    3.2579 C   0  0  0  0  0  0  0  0  0  0  0  0
   -7.6794    5.3980    2.5500 C   0  0  0  0  0  0  0  0  0  0  0  0
   -6.4562    5.9830    2.2817 C   0  0  0  0  0  0  0  0  0  0  0  0
   -5.2905    5.3844    2.7280 C   0  0  0  0  0  0  0  0  0  0  0  0
   -4.0943    5.9553    2.4663 F   0  0  0  0  0  0  0  0  0  0  0  0
   -3.2042    1.6508    2.0465 C   0  0  1  0  0  0  0  0  0  0  0  0
   -1.8490    0.9474    1.9601 C   0  0  1  0  0  0  0  0  0  0  0  0
   -2.0336    0.0662   -1.5125 H   0  0  0  0  0  0  0  0  0  0  0  0
   -3.3464    0.7545   -3.4788 H   0  0  0  0  0  0  0  0  0  0  0  0
   -1.3556    4.5263   -3.4877 H   0  0  0  0  0  0  0  0  0  0  0  0
   -0.0456    3.8394   -1.5191 H   0  0  0  0  0  0  0  0  0  0  0  0
   -0.2636    3.0794    2.9586 H   0  0  0  0  0  0  0  0  0  0  0  0
    0.0000    3.7780    1.3395 H   0  0  0  0  0  0  0  0  0  0  0  0
   -1.9489    4.7928    2.6543 H   0  0  0  0  0  0  0  0  0  0  0  0
   -2.3719    4.1682    1.0387 H   0  0  0  0  0  0  0  0  0  0  0  0
   -6.6219    2.6833    4.2509 H   0  0  0  0  0  0  0  0  0  0  0  0
   -8.6948    3.7557    3.4668 H   0  0  0  0  0  0  0  0  0  0  0  0
   -8.5893    5.8673    2.2061 H   0  0  0  0  0  0  0  0  0  0  0  0
   -6.4102    6.9091    1.7279 H   0  0  0  0  0  0  0  0  0  0  0  0
   -3.8838    1.0639    2.6644 H   0  0  0  0  0  0  0  0  0  0  0  0
   -3.6202    1.7625    1.0453 H   0  0  0  0  0  0  0  0  0  0  0  0
   -1.9405    0.0514    1.3461 H   0  0  0  0  0  0  0  0  0  0  0  0
   -1.5136    0.6754    2.9609 H   0  0  0  0  0  0  0  0  0  0  0  0
  1  2  2  0
  2  3  2  0
  2  4  1  0
  2 14  1  1
  4 13  2  0
  4  5  1  0
  5  6  2  0
  5 30  1  0
  6  7  1  0
  6 31  1  0
  7  8  1  0
  7 12  2  0
  8  9  1  1
  8 10  1  0
  8 11  1  0
 12 13  1  0
 12 32  1  0
 13 33  1  0
 14 29  1  0
 14 15  1  0
 15 16  1  0
 15 34  1  1
 15 35  1  0
 16 17  1  0
 16 36  1  1
 16 37  1  0
 18 17  1  6
 17 28  1  0
 18 19  2  0
 18 20  2  0
 18 21  1  0
 21 26  2  0
 21 22  1  0
 22 23  2  0
 22 38  1  0
 23 24  1  0
 23 39  1  0
 24 25  2  0
 24 40  1  0
 25 26  1  0
 25 41  1  0
 26 27  1  0
 28 29  1  0
 28 42  1  1
 28 43  1  0
 29 44  1  6
 29 45  1  0
M  END
$$$$
