ZINC000020886384
     RDKit          3D

 49 50  0  0  0  0  0  0  0  0999 V2000
   -0.0741    1.5507    0.0327 C   0  0  1  0  0  0  0  0  0  0  0  0
   -0.0626    0.0208    0.0303 C   0  0  1  0  0  0  0  0  0  0  0  0
    0.6242   -0.4605   -1.1709 N   0  0  0  0  0  0  0  0  0  0  0  0
    2.0835   -0.5894   -1.1782 C   0  0  1  0  0  0  0  0  0  0  0  0
    2.4788   -1.9443   -0.5876 C   0  0  1  0  0  0  0  0  0  0  0  0
   -0.2490   -0.8589   -2.5204 S   0  0  1  0  0  0  0  0  0  0  0  0
    0.5521   -1.7679   -3.2628 O   0  0  0  0  0  0  0  0  0  0  0  0
   -1.5619   -1.1668   -2.0723 O   0  0  0  0  0  0  0  0  0  0  0  0
   -0.3870    0.5984   -3.5012 C   0  0  0  0  0  0  0  0  0  0  0  0
   -1.4507    1.4608   -3.3119 C   0  0  0  0  0  0  0  0  0  0  0  0
   -1.5590    2.6040   -4.0814 C   0  0  0  0  0  0  0  0  0  0  0  0
   -0.6034    2.8851   -5.0399 C   0  0  0  0  0  0  0  0  0  0  0  0
   -0.7217    4.1312   -5.8791 C   0  0  1  0  0  0  0  0  0  0  0  0
    0.0046    5.2848   -5.1845 C   0  0  1  0  0  0  0  0  0  0  0  0
   -0.1138    6.5309   -6.0237 C   0  0  0  0  0  0  0  0  0  0  0  0
   -0.7194    6.4994   -7.0741 O   0  0  0  0  0  0  0  0  0  0  0  0
    0.4534    7.6803   -5.6071 N   0  0  0  0  0  0  0  0  0  0  0  0
    0.4246    8.8131   -6.4290 C   0  0  0  0  0  0  0  0  0  0  0  0
   -0.6741    9.0548   -7.2421 C   0  0  0  0  0  0  0  0  0  0  0  0
   -0.6998   10.1739   -8.0519 C   0  0  0  0  0  0  0  0  0  0  0  0
    0.3671   11.0531   -8.0533 C   0  0  0  0  0  0  0  0  0  0  0  0
    1.4639   10.8158   -7.2450 C   0  0  0  0  0  0  0  0  0  0  0  0
    1.4937    9.7014   -6.4284 C   0  0  0  0  0  0  0  0  0  0  0  0
    2.8703    9.4041   -5.4134 Cl  0  0  0  0  0  0  0  0  0  0  0  0
    0.4610    2.0234   -5.2283 C   0  0  0  0  0  0  0  0  0  0  0  0
    0.5713    0.8821   -4.4562 C   0  0  0  0  0  0  0  0  0  0  0  0
    0.9507    1.9218    0.0269 H   0  0  0  0  0  0  0  0  0  0  0  0
   -0.5962    1.9115   -0.8535 H   0  0  0  0  0  0  0  0  0  0  0  0
   -0.5851    1.9088    0.9265 H   0  0  0  0  0  0  0  0  0  0  0  0
    0.4595   -0.3400    0.9165 H   0  0  0  0  0  0  0  0  0  0  0  0
   -1.0874   -0.3503    0.0362 H   0  0  0  0  0  0  0  0  0  0  0  0
    2.4494   -0.5189   -2.2026 H   0  0  0  0  0  0  0  0  0  0  0  0
    2.5219    0.2095   -0.5801 H   0  0  0  0  0  0  0  0  0  0  0  0
    2.0405   -2.7432   -1.1856 H   0  0  0  0  0  0  0  0  0  0  0  0
    3.5646   -2.0402   -0.5930 H   0  0  0  0  0  0  0  0  0  0  0  0
    2.1130   -2.0147    0.4368 H   0  0  0  0  0  0  0  0  0  0  0  0
   -2.1973    1.2411   -2.5630 H   0  0  0  0  0  0  0  0  0  0  0  0
   -2.3904    3.2774   -3.9340 H   0  0  0  0  0  0  0  0  0  0  0  0
   -0.2725    3.9550   -6.8565 H   0  0  0  0  0  0  0  0  0  0  0  0
   -1.7740    4.3868   -6.0037 H   0  0  0  0  0  0  0  0  0  0  0  0
   -0.4447    5.4610   -4.2071 H   0  0  0  0  0  0  0  0  0  0  0  0
    1.0568    5.0292   -5.0600 H   0  0  0  0  0  0  0  0  0  0  0  0
    0.8815    7.7227   -4.7377 H   0  0  0  0  0  0  0  0  0  0  0  0
   -1.5080    8.3684   -7.2421 H   0  0  0  0  0  0  0  0  0  0  0  0
   -1.5544   10.3620   -8.6849 H   0  0  0  0  0  0  0  0  0  0  0  0
    0.3441   11.9271   -8.6874 H   0  0  0  0  0  0  0  0  0  0  0  0
    2.2959   11.5044   -7.2487 H   0  0  0  0  0  0  0  0  0  0  0  0
    1.2078    2.2432   -5.9769 H   0  0  0  0  0  0  0  0  0  0  0  0
    1.4029    0.2089   -4.6033 H   0  0  0  0  0  0  0  0  0  0  0  0
  1  2  1  0
  1 27  1  6
  1 28  1  0
  1 29  1  0
  2  3  1  0
  2 30  1  1
  2 31  1  0
  3  4  1  0
  6  3  1  1
  4  5  1  0
  4 32  1  6
  4 33  1  0
  5 34  1  6
  5 35  1  0
  5 36  1  0
  6  7  2  0
  6  8  2  0
  6  9  1  0
  9 26  2  0
  9 10  1  0
 10 11  2  0
 10 37  1  0
 11 12  1  0
 11 38  1  0
 12 13  1  0
 12 25  2  0
 13 14  1  0
 13 39  1  6
 13 40  1  0
 14 15  1  0
 14 41  1  1
 14 42  1  0
 15 16  2  0
 15 17  1  0
 17 18  1  0
 17 43  1  0
 18 23  2  0
 18 19  1  0
 19 20  2  0
 19 44  1  0
 20 21  1  0
 20 45  1  0
 21 22  2  0
 21 46  1  0
 22 23  1  0
 22 47  1  0
 23 24  1  0
 25 26  1  0
 25 48  1  0
 26 49  1  0
M  END
$$$$
