ZINC000012785195
     RDKit          3D

 43 45  0  0  0  0  0  0  0  0999 V2000
    0.9851    1.9039    0.0119 O   0  0  0  0  0  0  0  0  0  0  0  0
   -0.0144    1.2117    0.0087 C   0  0  0  0  0  0  0  0  0  0  0  0
    0.0962   -0.1315   -0.0014 N   0  0  0  0  0  0  0  0  0  0  0  0
    1.4156   -0.7570   -0.1207 C   0  0  1  0  0  0  0  0  0  0  0  0
    1.7183   -1.9471    0.7920 C   0  0  1  0  0  0  0  0  0  0  0  0
    1.4771   -2.1708   -0.7023 C   0  0  1  0  0  0  0  0  0  0  0  0
   -1.2329    1.7874    0.0209 N   0  0  0  0  0  0  0  0  0  0  0  0
   -1.3716    3.2471   -0.0797 C   0  0  1  0  0  0  0  0  0  0  0  0
   -2.2947    3.5714   -1.2608 C   0  0  1  0  0  0  0  0  0  0  0  0
   -3.5086    2.7509   -1.1472 N   0  0  0  0  0  0  0  0  0  0  0  0
   -5.0058    3.4582   -1.1333 S   0  0  1  0  0  0  0  0  0  0  0  0
   -5.8759    2.5432   -0.4815 O   0  0  0  0  0  0  0  0  0  0  0  0
   -4.8137    4.7957   -0.6935 O   0  0  0  0  0  0  0  0  0  0  0  0
   -5.5511    3.5579   -2.8058 C   0  0  0  0  0  0  0  0  0  0  0  0
   -5.2514    4.6734   -3.5652 C   0  0  0  0  0  0  0  0  0  0  0  0
   -5.6791    4.7516   -4.8774 C   0  0  0  0  0  0  0  0  0  0  0  0
   -6.4063    3.7141   -5.4303 C   0  0  0  0  0  0  0  0  0  0  0  0
   -6.8730    3.7995   -6.8607 C   0  0  1  0  0  0  0  0  0  0  0  0
   -5.8980    3.2543   -7.7028 F   0  0  0  0  0  0  0  0  0  0  0  0
   -8.0668    3.0845   -7.0052 F   0  0  0  0  0  0  0  0  0  0  0  0
   -7.0877    5.1392   -7.2019 F   0  0  0  0  0  0  0  0  0  0  0  0
   -6.7048    2.5980   -4.6714 C   0  0  0  0  0  0  0  0  0  0  0  0
   -6.2738    2.5181   -3.3604 C   0  0  0  0  0  0  0  0  0  0  0  0
   -3.3700    1.2912   -1.0466 C   0  0  1  0  0  0  0  0  0  0  0  0
   -2.4471    0.9664    0.1288 C   0  0  1  0  0  0  0  0  0  0  0  0
   -0.6978   -0.6841    0.0703 H   0  0  0  0  0  0  0  0  0  0  0  0
    2.2372   -0.0802   -0.3549 H   0  0  0  0  0  0  0  0  0  0  0  0
    2.7393   -2.0534    1.1584 H   0  0  0  0  0  0  0  0  0  0  0  0
    0.9358   -2.2647    1.4811 H   0  0  0  0  0  0  0  0  0  0  0  0
    0.5360   -2.6356   -0.9961 H   0  0  0  0  0  0  0  0  0  0  0  0
    2.3395   -2.4242   -1.3188 H   0  0  0  0  0  0  0  0  0  0  0  0
   -1.8046    3.6377    0.8411 H   0  0  0  0  0  0  0  0  0  0  0  0
   -0.3928    3.6969   -0.2462 H   0  0  0  0  0  0  0  0  0  0  0  0
   -2.5633    4.6275   -1.2358 H   0  0  0  0  0  0  0  0  0  0  0  0
   -1.7850    3.3431   -2.1968 H   0  0  0  0  0  0  0  0  0  0  0  0
   -4.6833    5.4840   -3.1332 H   0  0  0  0  0  0  0  0  0  0  0  0
   -5.4456    5.6234   -5.4705 H   0  0  0  0  0  0  0  0  0  0  0  0
   -7.2726    1.7872   -5.1035 H   0  0  0  0  0  0  0  0  0  0  0  0
   -6.5070    1.6461   -2.7674 H   0  0  0  0  0  0  0  0  0  0  0  0
   -4.3488    0.8414   -0.8801 H   0  0  0  0  0  0  0  0  0  0  0  0
   -2.9369    0.9006   -1.9674 H   0  0  0  0  0  0  0  0  0  0  0  0
   -2.1793   -0.0898    0.1027 H   0  0  0  0  0  0  0  0  0  0  0  0
   -2.9544    1.1946    1.0662 H   0  0  0  0  0  0  0  0  0  0  0  0
  1  2  2  0
  2  3  1  0
  2  7  1  0
  3  4  1  0
  3 26  1  0
  4  6  1  0
  4  5  1  0
  4 27  1  6
  5  6  1  0
  5 28  1  1
  5 29  1  0
  6 30  1  1
  6 31  1  0
  7 25  1  0
  7  8  1  0
  8  9  1  0
  8 32  1  1
  8 33  1  0
  9 10  1  0
  9 34  1  6
  9 35  1  0
 11 10  1  6
 10 24  1  0
 11 12  2  0
 11 13  2  0
 11 14  1  0
 14 23  2  0
 14 15  1  0
 15 16  2  0
 15 36  1  0
 16 17  1  0
 16 37  1  0
 17 18  1  0
 17 22  2  0
 18 19  1  6
 18 20  1  0
 18 21  1  0
 22 23  1  0
 22 38  1  0
 23 39  1  0
 24 25  1  0
 24 40  1  1
 24 41  1  0
 25 42  1  1
 25 43  1  0
M  END
$$$$
