ZINC000009493965
     RDKit          3D

 60 62  0  0  0  0  0  0  0  0999 V2000
   -0.0352    1.4062   -0.0209 C   0  0  1  0  0  0  0  0  0  0  0  0
   -0.0133   -0.0227   -0.0197 O   0  0  0  0  0  0  0  0  0  0  0  0
    0.6626   -0.5927    1.1029 C   0  0  1  0  0  0  0  0  0  0  0  0
    0.6242   -2.1188    1.0003 C   0  0  1  0  0  0  0  0  0  0  0  0
    1.3479   -2.7291    2.2022 C   0  0  1  0  0  0  0  0  0  0  0  0
    1.3112   -4.1903    2.1040 N   0  0  0  0  0  0  0  0  0  0  0  0
    2.3226   -4.8971    1.3142 C   0  0  1  0  0  0  0  0  0  0  0  0
    3.5483   -5.1290    2.1597 C   0  0  0  0  0  0  0  0  0  0  0  0
    3.5744   -4.7421    3.3090 O   0  0  0  0  0  0  0  0  0  0  0  0
    4.6155   -5.7664    1.6389 N   0  0  0  0  0  0  0  0  0  0  0  0
    5.7902   -5.8968    2.3921 C   0  0  0  0  0  0  0  0  0  0  0  0
    7.0273   -5.8422    1.7638 C   0  0  0  0  0  0  0  0  0  0  0  0
    8.1846   -5.9710    2.5055 C   0  0  0  0  0  0  0  0  0  0  0  0
    8.1114   -6.1548    3.8802 C   0  0  0  0  0  0  0  0  0  0  0  0
    9.2840   -6.2849    4.6320 N   0  0  0  0  0  0  0  0  0  0  0  0
   10.1122   -7.3907    4.1293 C   0  0  1  0  0  0  0  0  0  0  0  0
   11.4090   -7.4593    4.9401 C   0  0  1  0  0  0  0  0  0  0  0  0
   11.0912   -7.6079    6.3265 O   0  0  0  0  0  0  0  0  0  0  0  0
   10.2860   -6.5479    6.8494 C   0  0  1  0  0  0  0  0  0  0  0  0
    8.9778   -6.4700    6.0580 C   0  0  1  0  0  0  0  0  0  0  0  0
    6.8740   -6.2090    4.5085 C   0  0  0  0  0  0  0  0  0  0  0  0
    5.7170   -6.0749    3.7672 C   0  0  0  0  0  0  0  0  0  0  0  0
    0.1263   -5.0432    2.8856 S   0  0  1  0  0  0  0  0  0  0  0  0
    0.6370   -6.3552    3.0782 O   0  0  0  0  0  0  0  0  0  0  0  0
   -0.3231   -4.2197    3.9529 O   0  0  0  0  0  0  0  0  0  0  0  0
   -1.2290   -5.1956    1.7700 C   0  0  0  0  0  0  0  0  0  0  0  0
   -2.2175   -4.2296    1.7474 C   0  0  0  0  0  0  0  0  0  0  0  0
   -3.2808   -4.3491    0.8722 C   0  0  0  0  0  0  0  0  0  0  0  0
   -3.3553   -5.4344    0.0192 C   0  0  0  0  0  0  0  0  0  0  0  0
   -2.3662   -6.3999    0.0412 C   0  0  0  0  0  0  0  0  0  0  0  0
   -1.3007   -6.2782    0.9134 C   0  0  0  0  0  0  0  0  0  0  0  0
    0.9867    1.7852   -0.0343 H   0  0  0  0  0  0  0  0  0  0  0  0
   -0.5658    1.7607   -0.9045 H   0  0  0  0  0  0  0  0  0  0  0  0
   -0.5431    1.7625    0.8753 H   0  0  0  0  0  0  0  0  0  0  0  0
    1.6990   -0.2552    1.1128 H   0  0  0  0  0  0  0  0  0  0  0  0
    0.1692   -0.2778    2.0224 H   0  0  0  0  0  0  0  0  0  0  0  0
   -0.4121   -2.4563    0.9904 H   0  0  0  0  0  0  0  0  0  0  0  0
    1.1177   -2.4336    0.0808 H   0  0  0  0  0  0  0  0  0  0  0  0
    2.3843   -2.3915    2.2121 H   0  0  0  0  0  0  0  0  0  0  0  0
    0.8545   -2.4142    3.1217 H   0  0  0  0  0  0  0  0  0  0  0  0
    1.9218   -5.8556    0.9847 H   0  0  0  0  0  0  0  0  0  0  0  0
    2.5895   -4.2965    0.4446 H   0  0  0  0  0  0  0  0  0  0  0  0
    4.5706   -6.1350    0.7428 H   0  0  0  0  0  0  0  0  0  0  0  0
    7.0841   -5.6992    0.6948 H   0  0  0  0  0  0  0  0  0  0  0  0
    9.1468   -5.9292    2.0167 H   0  0  0  0  0  0  0  0  0  0  0  0
    9.5679   -8.3294    4.2330 H   0  0  0  0  0  0  0  0  0  0  0  0
   10.3482   -7.2202    3.0789 H   0  0  0  0  0  0  0  0  0  0  0  0
   12.0006   -8.3128    4.6088 H   0  0  0  0  0  0  0  0  0  0  0  0
   11.9789   -6.5418    4.7935 H   0  0  0  0  0  0  0  0  0  0  0  0
   10.0654   -6.7421    7.8990 H   0  0  0  0  0  0  0  0  0  0  0  0
   10.8232   -5.6038    6.7584 H   0  0  0  0  0  0  0  0  0  0  0  0
    8.3857   -5.6275    6.4154 H   0  0  0  0  0  0  0  0  0  0  0  0
    8.4154   -7.3940    6.1925 H   0  0  0  0  0  0  0  0  0  0  0  0
    6.8168   -6.3523    5.5775 H   0  0  0  0  0  0  0  0  0  0  0  0
    4.7547   -6.1167    4.2557 H   0  0  0  0  0  0  0  0  0  0  0  0
   -2.1594   -3.3817    2.4138 H   0  0  0  0  0  0  0  0  0  0  0  0
   -4.0535   -3.5948    0.8550 H   0  0  0  0  0  0  0  0  0  0  0  0
   -4.1864   -5.5282   -0.6641 H   0  0  0  0  0  0  0  0  0  0  0  0
   -2.4246   -7.2480   -0.6250 H   0  0  0  0  0  0  0  0  0  0  0  0
   -0.5280   -7.0325    0.9306 H   0  0  0  0  0  0  0  0  0  0  0  0
  1  2  1  0
  1 32  1  6
  1 33  1  0
  1 34  1  0
  2  3  1  0
  3  4  1  0
  3 35  1  1
  3 36  1  0
  4  5  1  0
  4 37  1  6
  4 38  1  0
  5  6  1  0
  5 39  1  1
  5 40  1  0
  6  7  1  0
 23  6  1  6
  7  8  1  0
  7 41  1  6
  7 42  1  0
  8  9  2  0
  8 10  1  0
 10 11  1  0
 10 43  1  0
 11 22  2  0
 11 12  1  0
 12 13  2  0
 12 44  1  0
 13 14  1  0
 13 45  1  0
 14 15  1  0
 14 21  2  0
 15 20  1  0
 15 16  1  0
 16 17  1  0
 16 46  1  6
 16 47  1  0
 17 18  1  0
 17 48  1  6
 17 49  1  0
 18 19  1  0
 19 20  1  0
 19 50  1  1
 19 51  1  0
 20 52  1  1
 20 53  1  0
 21 22  1  0
 21 54  1  0
 22 55  1  0
 23 24  2  0
 23 25  2  0
 23 26  1  0
 26 31  2  0
 26 27  1  0
 27 28  2  0
 27 56  1  0
 28 29  1  0
 28 57  1  0
 29 30  2  0
 29 58  1  0
 30 31  1  0
 30 59  1  0
 31 60  1  0
M  END
$$$$
