ZINC000408786148
     RDKit          3D

 58 61  0  0  0  0  0  0  0  0999 V2000
   -9.3016   -5.8487    3.9265 C   0  0  1  0  0  0  0  0  0  0  0  0
   -9.5508   -4.5900    3.2974 O   0  0  0  0  0  0  0  0  0  0  0  0
   -8.5953   -4.1236    2.4495 C   0  0  0  0  0  0  0  0  0  0  0  0
   -7.4464   -4.8638    2.2238 C   0  0  0  0  0  0  0  0  0  0  0  0
   -6.4760   -4.3884    1.3609 C   0  0  0  0  0  0  0  0  0  0  0  0
   -6.6491   -3.1748    0.7226 C   0  0  0  0  0  0  0  0  0  0  0  0
   -5.4086   -2.5742   -0.3752 S   0  0  1  0  0  0  0  0  0  0  0  0
   -5.5562   -1.1614   -0.4132 O   0  0  0  0  0  0  0  0  0  0  0  0
   -4.1981   -3.2195   -0.0044 O   0  0  0  0  0  0  0  0  0  0  0  0
   -5.7868   -3.1248   -1.8906 N   0  0  0  0  0  0  0  0  0  0  0  0
   -5.3876   -4.4733   -2.3007 C   0  0  1  0  0  0  0  0  0  0  0  0
   -6.5274   -5.4295   -2.0605 C   0  0  0  0  0  0  0  0  0  0  0  0
   -7.5706   -5.0244   -1.5927 O   0  0  0  0  0  0  0  0  0  0  0  0
   -6.3876   -6.7349   -2.3655 N   0  0  0  0  0  0  0  0  0  0  0  0
   -7.4051   -7.6424   -2.0434 C   0  0  0  0  0  0  0  0  0  0  0  0
   -7.6407   -8.7397   -2.8601 C   0  0  0  0  0  0  0  0  0  0  0  0
   -8.6445   -9.6357   -2.5438 C   0  0  0  0  0  0  0  0  0  0  0  0
   -9.4182   -9.4413   -1.4115 C   0  0  0  0  0  0  0  0  0  0  0  0
  -10.4517  -10.1645   -0.8874 O   0  0  0  0  0  0  0  0  0  0  0  0
  -10.5770   -9.7224    0.4771 C   0  0  1  0  0  0  0  0  0  0  0  0
  -10.0700   -8.3751    0.4483 O   0  0  0  0  0  0  0  0  0  0  0  0
   -9.1839   -8.3410   -0.5896 C   0  0  0  0  0  0  0  0  0  0  0  0
   -8.1744   -7.4472   -0.9040 C   0  0  0  0  0  0  0  0  0  0  0  0
   -6.5206   -2.2633   -2.8209 C   0  0  1  0  0  0  0  0  0  0  0  0
   -5.5462   -1.5664   -3.7352 C   0  0  0  0  0  0  0  0  0  0  0  0
   -4.9973   -0.3530   -3.3646 C   0  0  0  0  0  0  0  0  0  0  0  0
   -4.1035    0.2862   -4.2033 C   0  0  0  0  0  0  0  0  0  0  0  0
   -3.7581   -0.2882   -5.4123 C   0  0  0  0  0  0  0  0  0  0  0  0
   -4.3063   -1.5020   -5.7824 C   0  0  0  0  0  0  0  0  0  0  0  0
   -5.1968   -2.1433   -4.9419 C   0  0  0  0  0  0  0  0  0  0  0  0
   -7.7939   -2.4311    0.9432 C   0  0  0  0  0  0  0  0  0  0  0  0
   -8.7722   -2.9041    1.8022 C   0  0  0  0  0  0  0  0  0  0  0  0
   -9.8986   -2.1740    2.0203 O   0  0  0  0  0  0  0  0  0  0  0  0
  -10.0075   -0.9274    1.3301 C   0  0  1  0  0  0  0  0  0  0  0  0
  -10.1399   -6.1030    4.5750 H   0  0  0  0  0  0  0  0  0  0  0  0
   -9.1851   -6.6191    3.1642 H   0  0  0  0  0  0  0  0  0  0  0  0
   -8.3897   -5.7840    4.5200 H   0  0  0  0  0  0  0  0  0  0  0  0
   -7.3084   -5.8121    2.7219 H   0  0  0  0  0  0  0  0  0  0  0  0
   -5.5807   -4.9665    1.1858 H   0  0  0  0  0  0  0  0  0  0  0  0
   -5.1331   -4.4703   -3.3606 H   0  0  0  0  0  0  0  0  0  0  0  0
   -4.5207   -4.7881   -1.7198 H   0  0  0  0  0  0  0  0  0  0  0  0
   -5.5825   -7.0460   -2.8081 H   0  0  0  0  0  0  0  0  0  0  0  0
   -7.0391   -8.8934   -3.7438 H   0  0  0  0  0  0  0  0  0  0  0  0
   -8.8261  -10.4886   -3.1809 H   0  0  0  0  0  0  0  0  0  0  0  0
  -11.6216   -9.7319    0.7884 H   0  0  0  0  0  0  0  0  0  0  0  0
   -9.9737  -10.3445    1.1382 H   0  0  0  0  0  0  0  0  0  0  0  0
   -7.9880   -6.5963   -0.2656 H   0  0  0  0  0  0  0  0  0  0  0  0
   -7.2056   -2.8693   -3.4140 H   0  0  0  0  0  0  0  0  0  0  0  0
   -7.0864   -1.5203   -2.2588 H   0  0  0  0  0  0  0  0  0  0  0  0
   -5.2672    0.0958   -2.4201 H   0  0  0  0  0  0  0  0  0  0  0  0
   -3.6753    1.2346   -3.9141 H   0  0  0  0  0  0  0  0  0  0  0  0
   -3.0603    0.2116   -6.0678 H   0  0  0  0  0  0  0  0  0  0  0  0
   -4.0367   -1.9506   -6.7271 H   0  0  0  0  0  0  0  0  0  0  0  0
   -5.6251   -3.0917   -5.2310 H   0  0  0  0  0  0  0  0  0  0  0  0
   -7.9267   -1.4831    0.4431 H   0  0  0  0  0  0  0  0  0  0  0  0
   -9.1788   -0.2800    1.6165 H   0  0  0  0  0  0  0  0  0  0  0  0
   -9.9762   -1.1035    0.2548 H   0  0  0  0  0  0  0  0  0  0  0  0
  -10.9506   -0.4480    1.5924 H   0  0  0  0  0  0  0  0  0  0  0  0
  1  2  1  0
  1 35  1  1
  1 36  1  0
  1 37  1  0
  2  3  1  0
  3 32  2  0
  3  4  1  0
  4  5  2  0
  4 38  1  0
  5  6  1  0
  5 39  1  0
  6  7  1  0
  6 31  2  0
  7  8  2  0
  7  9  2  0
  7 10  1  6
 10 11  1  0
 10 24  1  0
 11 12  1  0
 11 40  1  6
 11 41  1  0
 12 13  2  0
 12 14  1  0
 14 15  1  0
 14 42  1  0
 15 23  2  0
 15 16  1  0
 16 17  2  0
 16 43  1  0
 17 18  1  0
 17 44  1  0
 18 22  2  0
 18 19  1  0
 19 20  1  0
 20 21  1  0
 20 45  1  1
 20 46  1  0
 21 22  1  0
 22 23  1  0
 23 47  1  0
 24 25  1  0
 24 48  1  6
 24 49  1  0
 25 30  2  0
 25 26  1  0
 26 27  2  0
 26 50  1  0
 27 28  1  0
 27 51  1  0
 28 29  2  0
 28 52  1  0
 29 30  1  0
 29 53  1  0
 30 54  1  0
 31 32  1  0
 31 55  1  0
 32 33  1  0
 33 34  1  0
 34 56  1  1
 34 57  1  0
 34 58  1  0
M  END
$$$$
