ZINC000032909193
     RDKit          3D

 44 46  0  0  1  0  0  0  0  0999 V2000
   -0.0327    1.5081   -0.0330 C   0  0  1  0  0  0  0  0  0  0  0  0
   -0.0087    0.0013   -0.0309 C   0  0  0  0  0  0  0  0  0  0  0  0
   -1.0863   -0.7849   -0.0242 C   0  0  0  0  0  0  0  0  0  0  0  0
   -0.8176   -2.1428   -0.0241 C   0  0  0  0  0  0  0  0  0  0  0  0
    0.4782   -2.4594   -0.0306 C   0  0  0  0  0  0  0  0  0  0  0  0
    1.1232   -4.0990   -0.0330 S   0  0  1  0  0  0  0  0  0  0  0  0
    2.4359   -4.0147    0.5046 O   0  0  0  0  0  0  0  0  0  0  0  0
    0.1099   -4.9297    0.5171 O   0  0  0  0  0  0  0  0  0  0  0  0
    1.2945   -4.5561   -1.6155 N   0  0  0  0  0  0  0  0  0  0  0  0
    0.2663   -5.2260   -2.4324 C   0  0  1  0  0  0  0  0  0  0  0  0
    0.6348   -4.8789   -3.8965 C   0  0  1  0  0  0  0  0  0  0  0  0
    2.1851   -4.9152   -3.8444 C   0  0  1  0  0  0  0  0  0  0  0  0
    2.4949   -4.3552   -2.4402 C   0  0  2  0  0  0  0  0  0  0  0  0
    2.7304   -3.2931   -2.5084 H   0  0  0  0  0  0  0  0  0  0  0  0
    3.6575   -5.1000   -1.8365 C   0  0  0  0  0  0  0  0  0  0  0  0
    3.5086   -5.7262   -0.8085 O   0  0  0  0  0  0  0  0  0  0  0  0
    4.8628   -5.0702   -2.4388 N   0  0  0  0  0  0  0  0  0  0  0  0
    5.9648   -5.6802   -1.8292 C   0  0  0  0  0  0  0  0  0  0  0  0
    7.2281   -5.1164   -1.9516 C   0  0  0  0  0  0  0  0  0  0  0  0
    8.3137   -5.7209   -1.3487 C   0  0  0  0  0  0  0  0  0  0  0  0
    8.1439   -6.8865   -0.6244 C   0  0  0  0  0  0  0  0  0  0  0  0
    9.3309   -7.5437    0.0317 C   0  0  1  0  0  0  0  0  0  0  0  0
    9.4874   -7.0378    1.3266 F   0  0  0  0  0  0  0  0  0  0  0  0
    9.1238   -8.9260    0.0929 F   0  0  0  0  0  0  0  0  0  0  0  0
   10.4833   -7.2775   -0.7154 F   0  0  0  0  0  0  0  0  0  0  0  0
    6.8873   -7.4502   -0.5003 C   0  0  0  0  0  0  0  0  0  0  0  0
    5.7967   -6.8474   -1.0959 C   0  0  0  0  0  0  0  0  0  0  0  0
    1.4443   -0.9897   -0.0444 S   0  0  0  0  0  0  0  0  0  0  0  0
    0.9890    1.8877   -0.0438 H   0  0  0  0  0  0  0  0  0  0  0  0
   -0.5611    1.8618   -0.9183 H   0  0  0  0  0  0  0  0  0  0  0  0
   -0.5433    1.8646    0.8616 H   0  0  0  0  0  0  0  0  0  0  0  0
   -2.0922   -0.3918   -0.0190 H   0  0  0  0  0  0  0  0  0  0  0  0
   -1.5980   -2.8894   -0.0187 H   0  0  0  0  0  0  0  0  0  0  0  0
    0.3021   -6.3044   -2.2777 H   0  0  0  0  0  0  0  0  0  0  0  0
   -0.7233   -4.8395   -2.1885 H   0  0  0  0  0  0  0  0  0  0  0  0
    0.2494   -5.6308   -4.5851 H   0  0  0  0  0  0  0  0  0  0  0  0
    0.2760   -3.8852   -4.1646 H   0  0  0  0  0  0  0  0  0  0  0  0
    2.5506   -5.9371   -3.9453 H   0  0  0  0  0  0  0  0  0  0  0  0
    2.6119   -4.2739   -4.6156 H   0  0  0  0  0  0  0  0  0  0  0  0
    4.9664   -4.6260   -3.2949 H   0  0  0  0  0  0  0  0  0  0  0  0
    7.3614   -4.2065   -2.5178 H   0  0  0  0  0  0  0  0  0  0  0  0
    9.2964   -5.2830   -1.4435 H   0  0  0  0  0  0  0  0  0  0  0  0
    6.7580   -8.3606    0.0661 H   0  0  0  0  0  0  0  0  0  0  0  0
    4.8155   -7.2881   -0.9987 H   0  0  0  0  0  0  0  0  0  0  0  0
  1  2  1  0
  1 29  1  6
  1 30  1  0
  1 31  1  0
  2 28  1  0
  2  3  2  0
  3  4  1  0
  3 32  1  0
  4  5  2  0
  4 33  1  0
  5  6  1  0
  5 28  1  0
  6  7  2  0
  6  8  2  0
  6  9  1  6
  9 13  1  0
  9 10  1  0
 10 11  1  0
 10 34  1  6
 10 35  1  0
 11 12  1  0
 11 36  1  6
 11 37  1  0
 12 13  1  0
 12 38  1  1
 12 39  1  0
 13 14  1  6
 13 15  1  0
 15 16  2  0
 15 17  1  0
 17 18  1  0
 17 40  1  0
 18 27  2  0
 18 19  1  0
 19 20  2  0
 19 41  1  0
 20 21  1  0
 20 42  1  0
 21 22  1  0
 21 26  2  0
 22 23  1  1
 22 24  1  0
 22 25  1  0
 26 27  1  0
 26 43  1  0
 27 44  1  0
M  END
$$$$
