ZINC000000842957
     RDKit          3D

 54 56  0  0  0  0  0  0  0  0999 V2000
    1.0224   -5.9028  -10.0326 C   0  0  1  0  0  0  0  0  0  0  0  0
    1.5278   -4.5714   -9.9145 O   0  0  0  0  0  0  0  0  0  0  0  0
    1.7761   -4.1148   -8.6588 C   0  0  0  0  0  0  0  0  0  0  0  0
    1.5436   -4.9335   -7.5632 C   0  0  0  0  0  0  0  0  0  0  0  0
    1.7972   -4.4673   -6.2878 C   0  0  0  0  0  0  0  0  0  0  0  0
    2.2819   -3.1857   -6.1026 C   0  0  0  0  0  0  0  0  0  0  0  0
    2.6039   -2.5938   -4.4745 S   0  0  1  0  0  0  0  0  0  0  0  0
    2.5210   -1.1767   -4.5391 O   0  0  0  0  0  0  0  0  0  0  0  0
    1.8088   -3.3797   -3.5973 O   0  0  0  0  0  0  0  0  0  0  0  0
    4.1819   -2.9545   -4.1249 N   0  0  0  0  0  0  0  0  0  0  0  0
    4.5348   -4.2833   -3.6191 C   0  0  1  0  0  0  0  0  0  0  0  0
    4.9650   -5.1598   -4.7671 C   0  0  0  0  0  0  0  0  0  0  0  0
    4.9756   -4.7180   -5.8965 O   0  0  0  0  0  0  0  0  0  0  0  0
    5.3378   -6.4347   -4.5386 N   0  0  0  0  0  0  0  0  0  0  0  0
    5.7559   -7.2867   -5.6546 C   0  0  1  0  0  0  0  0  0  0  0  0
    7.2681   -7.1194   -5.9095 C   0  0  1  0  0  0  0  0  0  0  0  0
    7.9168   -8.2885   -5.1277 C   0  0  1  0  0  0  0  0  0  0  0  0
    6.9145   -9.4478   -5.3525 C   0  0  1  0  0  0  0  0  0  0  0  0
    5.5311   -8.7672   -5.3004 C   0  0  1  0  0  0  0  0  0  0  0  0
    5.2249   -1.9447   -4.3215 C   0  0  1  0  0  0  0  0  0  0  0  0
    5.4908   -1.2368   -3.0179 C   0  0  0  0  0  0  0  0  0  0  0  0
    4.8526   -0.0433   -2.7368 C   0  0  0  0  0  0  0  0  0  0  0  0
    5.0964    0.6060   -1.5410 C   0  0  0  0  0  0  0  0  0  0  0  0
    5.9782    0.0616   -0.6262 C   0  0  0  0  0  0  0  0  0  0  0  0
    6.6158   -1.1324   -0.9069 C   0  0  0  0  0  0  0  0  0  0  0  0
    6.3686   -1.7839   -2.1008 C   0  0  0  0  0  0  0  0  0  0  0  0
    2.5149   -2.3679   -7.1929 C   0  0  0  0  0  0  0  0  0  0  0  0
    2.2679   -2.8313   -8.4707 C   0  0  0  0  0  0  0  0  0  0  0  0
    1.7388   -6.6028   -9.6028 H   0  0  0  0  0  0  0  0  0  0  0  0
    0.0744   -5.9802   -9.5001 H   0  0  0  0  0  0  0  0  0  0  0  0
    0.8683   -6.1409  -11.0851 H   0  0  0  0  0  0  0  0  0  0  0  0
    1.1643   -5.9344   -7.7072 H   0  0  0  0  0  0  0  0  0  0  0  0
    1.6164   -5.1043   -5.4345 H   0  0  0  0  0  0  0  0  0  0  0  0
    5.3524   -4.1944   -2.9037 H   0  0  0  0  0  0  0  0  0  0  0  0
    3.6688   -4.7269   -3.1279 H   0  0  0  0  0  0  0  0  0  0  0  0
    5.3292   -6.7880   -3.6353 H   0  0  0  0  0  0  0  0  0  0  0  0
    5.1943   -7.0281   -6.5523 H   0  0  0  0  0  0  0  0  0  0  0  0
    7.4872   -7.2042   -6.9739 H   0  0  0  0  0  0  0  0  0  0  0  0
    7.6165   -6.1618   -5.5224 H   0  0  0  0  0  0  0  0  0  0  0  0
    8.8935   -8.5363   -5.5433 H   0  0  0  0  0  0  0  0  0  0  0  0
    7.9968   -8.0471   -4.0678 H   0  0  0  0  0  0  0  0  0  0  0  0
    7.0765   -9.9086   -6.3269 H   0  0  0  0  0  0  0  0  0  0  0  0
    7.0048  -10.1895   -4.5589 H   0  0  0  0  0  0  0  0  0  0  0  0
    5.1108   -8.8517   -4.2982 H   0  0  0  0  0  0  0  0  0  0  0  0
    4.8610   -9.2273   -6.0267 H   0  0  0  0  0  0  0  0  0  0  0  0
    6.1391   -2.4287   -4.6651 H   0  0  0  0  0  0  0  0  0  0  0  0
    4.8945   -1.2213   -5.0669 H   0  0  0  0  0  0  0  0  0  0  0  0
    4.1636    0.3821   -3.4515 H   0  0  0  0  0  0  0  0  0  0  0  0
    4.5983    1.5389   -1.3217 H   0  0  0  0  0  0  0  0  0  0  0  0
    6.1693    0.5692    0.3077 H   0  0  0  0  0  0  0  0  0  0  0  0
    7.3050   -1.5576   -0.1923 H   0  0  0  0  0  0  0  0  0  0  0  0
    6.8667   -2.7167   -2.3202 H   0  0  0  0  0  0  0  0  0  0  0  0
    2.8939   -1.3674   -7.0457 H   0  0  0  0  0  0  0  0  0  0  0  0
    2.4500   -2.1922   -9.3220 H   0  0  0  0  0  0  0  0  0  0  0  0
  1  2  1  0
  1 29  1  1
  1 30  1  0
  1 31  1  0
  2  3  1  0
  3 28  2  0
  3  4  1  0
  4  5  2  0
  4 32  1  0
  5  6  1  0
  5 33  1  0
  6  7  1  0
  6 27  2  0
  7  8  2  0
  7  9  2  0
  7 10  1  1
 10 11  1  0
 10 20  1  0
 11 12  1  0
 11 34  1  1
 11 35  1  0
 12 13  2  0
 12 14  1  0
 14 15  1  0
 14 36  1  0
 15 19  1  0
 15 16  1  0
 15 37  1  6
 16 17  1  0
 16 38  1  6
 16 39  1  0
 17 18  1  0
 17 40  1  6
 17 41  1  0
 18 19  1  0
 18 42  1  6
 18 43  1  0
 19 44  1  1
 19 45  1  0
 20 21  1  0
 20 46  1  6
 20 47  1  0
 21 26  2  0
 21 22  1  0
 22 23  2  0
 22 48  1  0
 23 24  1  0
 23 49  1  0
 24 25  2  0
 24 50  1  0
 25 26  1  0
 25 51  1  0
 26 52  1  0
 27 28  1  0
 27 53  1  0
 28 54  1  0
M  END
$$$$
