ZINC000045944492
     RDKit          3D

 55 56  0  0  0  0  0  0  0  0999 V2000
   -0.0187    1.5258    0.0104 C   0  0  1  0  0  0  0  0  0  0  0  0
    0.0021   -0.0041    0.0020 C   0  0  1  0  0  0  0  0  0  0  0  0
    0.7074   -0.4901   -1.2379 C   0  0  0  0  0  0  0  0  0  0  0  0
   -0.0105   -0.7185   -2.3969 C   0  0  0  0  0  0  0  0  0  0  0  0
    0.6365   -1.1643   -3.5342 C   0  0  0  0  0  0  0  0  0  0  0  0
    2.0016   -1.3812   -3.5126 C   0  0  0  0  0  0  0  0  0  0  0  0
    2.8262   -1.9500   -4.9622 S   0  0  1  0  0  0  0  0  0  0  0  0
    4.0170   -2.5884   -4.5220 O   0  0  0  0  0  0  0  0  0  0  0  0
    1.8423   -2.6013   -5.7541 O   0  0  0  0  0  0  0  0  0  0  0  0
    3.3006   -0.6112   -5.8135 N   0  0  0  0  0  0  0  0  0  0  0  0
    4.6143   -0.0125   -5.5646 C   0  0  1  0  0  0  0  0  0  0  0  0
    5.6247   -0.5620   -6.5736 C   0  0  1  0  0  0  0  0  0  0  0  0
    5.2606   -0.1410   -7.8898 O   0  0  0  0  0  0  0  0  0  0  0  0
    6.1444   -0.6031   -8.9132 C   0  0  1  0  0  0  0  0  0  0  0  0
    2.4067   -0.0255   -6.8155 C   0  0  1  0  0  0  0  0  0  0  0  0
    1.6048    1.1124   -6.1806 C   0  0  1  0  0  0  0  0  0  0  0  0
    0.6852    1.7149   -7.2113 C   0  0  0  0  0  0  0  0  0  0  0  0
    0.6724    1.2773   -8.3423 O   0  0  0  0  0  0  0  0  0  0  0  0
   -0.1230    2.7401   -6.8762 N   0  0  0  0  0  0  0  0  0  0  0  0
   -0.1189    3.2899   -5.5121 C   0  0  1  0  0  0  0  0  0  0  0  0
   -1.5635    3.3408   -5.0034 C   0  0  1  0  0  0  0  0  0  0  0  0
   -2.3929    4.0765   -5.9671 N   0  0  0  0  0  0  0  0  0  0  0  0
   -2.4412    3.3877   -7.2637 C   0  0  1  0  0  0  0  0  0  0  0  0
   -1.0281    3.3427   -7.8666 C   0  0  1  0  0  0  0  0  0  0  0  0
    2.7197   -1.1515   -2.3540 C   0  0  0  0  0  0  0  0  0  0  0  0
    2.0733   -0.7021   -1.2178 C   0  0  0  0  0  0  0  0  0  0  0  0
    1.0039    1.9031    0.0027 H   0  0  0  0  0  0  0  0  0  0  0  0
   -0.5459    1.8868   -0.8726 H   0  0  0  0  0  0  0  0  0  0  0  0
   -0.5289    1.8773    0.9072 H   0  0  0  0  0  0  0  0  0  0  0  0
    0.5293   -0.3651    0.8851 H   0  0  0  0  0  0  0  0  0  0  0  0
   -1.0205   -0.3814    0.0098 H   0  0  0  0  0  0  0  0  0  0  0  0
   -1.0770   -0.5490   -2.4137 H   0  0  0  0  0  0  0  0  0  0  0  0
    0.0755   -1.3434   -4.4395 H   0  0  0  0  0  0  0  0  0  0  0  0
    4.5463    1.0702   -5.6714 H   0  0  0  0  0  0  0  0  0  0  0  0
    4.9400   -0.2581   -4.5538 H   0  0  0  0  0  0  0  0  0  0  0  0
    6.6191   -0.1856   -6.3339 H   0  0  0  0  0  0  0  0  0  0  0  0
    5.6278   -1.6511   -6.5283 H   0  0  0  0  0  0  0  0  0  0  0  0
    5.7995   -0.2413   -9.8818 H   0  0  0  0  0  0  0  0  0  0  0  0
    7.1496   -0.2275   -8.7219 H   0  0  0  0  0  0  0  0  0  0  0  0
    6.1583   -1.6930   -8.9164 H   0  0  0  0  0  0  0  0  0  0  0  0
    2.9965    0.3644   -7.6450 H   0  0  0  0  0  0  0  0  0  0  0  0
    1.7229   -0.7903   -7.1837 H   0  0  0  0  0  0  0  0  0  0  0  0
    1.0150    0.7225   -5.3510 H   0  0  0  0  0  0  0  0  0  0  0  0
    2.2886    1.8773   -5.8123 H   0  0  0  0  0  0  0  0  0  0  0  0
    0.4762    2.6496   -4.8610 H   0  0  0  0  0  0  0  0  0  0  0  0
    0.3008    4.2958   -5.5240 H   0  0  0  0  0  0  0  0  0  0  0  0
   -1.9465    2.3262   -4.8938 H   0  0  0  0  0  0  0  0  0  0  0  0
   -1.5917    3.8469   -4.0384 H   0  0  0  0  0  0  0  0  0  0  0  0
   -3.3218    4.2278   -5.6033 H   0  0  0  0  0  0  0  0  0  0  0  0
   -2.8119    2.3724   -7.1226 H   0  0  0  0  0  0  0  0  0  0  0  0
   -3.1059    3.9277   -7.9379 H   0  0  0  0  0  0  0  0  0  0  0  0
   -0.6991    4.3543   -8.1043 H   0  0  0  0  0  0  0  0  0  0  0  0
   -1.0352    2.7349   -8.7714 H   0  0  0  0  0  0  0  0  0  0  0  0
    3.7863   -1.3207   -2.3373 H   0  0  0  0  0  0  0  0  0  0  0  0
    2.6344   -0.5226   -0.3126 H   0  0  0  0  0  0  0  0  0  0  0  0
  1  2  1  0
  1 27  1  6
  1 28  1  0
  1 29  1  0
  2  3  1  0
  2 30  1  1
  2 31  1  0
  3 26  2  0
  3  4  1  0
  4  5  2  0
  4 32  1  0
  5  6  1  0
  5 33  1  0
  6  7  1  0
  6 25  2  0
  7  8  2  0
  7  9  2  0
  7 10  1  6
 10 11  1  0
 10 15  1  0
 11 12  1  0
 11 34  1  1
 11 35  1  0
 12 13  1  0
 12 36  1  1
 12 37  1  0
 13 14  1  0
 14 38  1  6
 14 39  1  0
 14 40  1  0
 15 16  1  0
 15 41  1  6
 15 42  1  0
 16 17  1  0
 16 43  1  1
 16 44  1  0
 17 18  2  0
 17 19  1  0
 19 24  1  0
 19 20  1  0
 20 21  1  0
 20 45  1  1
 20 46  1  0
 21 22  1  0
 21 47  1  1
 21 48  1  0
 22 23  1  0
 22 49  1  0
 23 24  1  0
 23 50  1  1
 23 51  1  0
 24 52  1  6
 24 53  1  0
 25 26  1  0
 25 54  1  0
 26 55  1  0
M  END
$$$$
