ZINC000012438635
     RDKit          3D

 41 42  0  0  1  0  0  0  0  0999 V2000
   -0.0173    1.4248    0.0099 C   0  0  1  0  0  0  0  0  0  0  0  0
    0.0021   -0.0041    0.0020 O   0  0  0  0  0  0  0  0  0  0  0  0
    0.6518   -0.5703   -1.1379 C   0  0  1  0  0  0  0  0  0  0  0  0
    0.6137   -2.0738   -1.0425 C   0  0  0  0  0  0  0  0  0  0  0  0
    0.0824   -2.6078   -0.0920 O   0  0  0  0  0  0  0  0  0  0  0  0
    1.1699   -2.8249   -2.0135 N   0  0  0  0  0  0  0  0  0  0  0  0
    1.8225   -2.1924   -3.1680 C   0  0  1  0  0  0  0  0  0  0  0  0
    1.2133   -2.7632   -4.4525 C   0  0  1  0  0  0  0  0  0  0  0  0
    1.3201   -4.2897   -4.4285 C   0  0  1  0  0  0  0  0  0  0  0  0
    0.5343   -4.8390   -3.2357 C   0  0  1  0  0  0  0  0  0  0  0  0
   -0.5079   -4.5291   -3.3127 H   0  0  0  0  0  0  0  0  0  0  0  0
    0.6126   -6.3440   -3.2319 C   0  0  0  0  0  0  0  0  0  0  0  0
    1.5892   -6.9014   -3.6855 O   0  0  0  0  0  0  0  0  0  0  0  0
   -0.4963   -7.1371   -2.6776 C   0  0  0  0  0  0  0  0  0  0  0  0
   -1.6269   -6.4980   -2.1588 C   0  0  0  0  0  0  0  0  0  0  0  0
   -2.6616   -7.2481   -1.6412 C   0  0  0  0  0  0  0  0  0  0  0  0
   -2.5832   -8.6299   -1.6339 C   0  0  0  0  0  0  0  0  0  0  0  0
   -3.7187   -9.4421   -1.0663 C   0  0  1  0  0  0  0  0  0  0  0  0
   -4.6375   -9.7319   -2.0808 F   0  0  0  0  0  0  0  0  0  0  0  0
   -3.2184  -10.6358   -0.5353 F   0  0  0  0  0  0  0  0  0  0  0  0
   -4.3544   -8.7125   -0.0559 F   0  0  0  0  0  0  0  0  0  0  0  0
   -1.4677   -9.2698   -2.1456 C   0  0  0  0  0  0  0  0  0  0  0  0
   -0.4274   -8.5339   -2.6723 C   0  0  0  0  0  0  0  0  0  0  0  0
    1.1407   -4.2918   -1.9346 C   0  0  1  0  0  0  0  0  0  0  0  0
    1.0053    1.8021    0.0021 H   0  0  0  0  0  0  0  0  0  0  0  0
   -0.5445    1.7859   -0.8732 H   0  0  0  0  0  0  0  0  0  0  0  0
   -0.5275    1.7763    0.9067 H   0  0  0  0  0  0  0  0  0  0  0  0
    0.1385   -0.2506   -2.0447 H   0  0  0  0  0  0  0  0  0  0  0  0
    1.6883   -0.2344   -1.1694 H   0  0  0  0  0  0  0  0  0  0  0  0
    1.6607   -1.1150   -3.1342 H   0  0  0  0  0  0  0  0  0  0  0  0
    2.8914   -2.4044   -3.1450 H   0  0  0  0  0  0  0  0  0  0  0  0
    0.1648   -2.4728   -4.5181 H   0  0  0  0  0  0  0  0  0  0  0  0
    1.7537   -2.3742   -5.3155 H   0  0  0  0  0  0  0  0  0  0  0  0
    0.9096   -4.6970   -5.3524 H   0  0  0  0  0  0  0  0  0  0  0  0
    2.3671   -4.5790   -4.3380 H   0  0  0  0  0  0  0  0  0  0  0  0
   -1.6892   -5.4198   -2.1631 H   0  0  0  0  0  0  0  0  0  0  0  0
   -3.5354   -6.7561   -1.2401 H   0  0  0  0  0  0  0  0  0  0  0  0
   -1.4140  -10.3484   -2.1363 H   0  0  0  0  0  0  0  0  0  0  0  0
    0.4424   -9.0346   -3.0712 H   0  0  0  0  0  0  0  0  0  0  0  0
    2.1532   -4.6767   -1.8131 H   0  0  0  0  0  0  0  0  0  0  0  0
    0.5268   -4.5988   -1.0879 H   0  0  0  0  0  0  0  0  0  0  0  0
  1  2  1  0
  1 25  1  6
  1 26  1  0
  1 27  1  0
  2  3  1  0
  3  4  1  0
  3 28  1  6
  3 29  1  0
  4  5  2  0
  4  6  1  0
  6 24  1  0
  6  7  1  0
  7  8  1  0
  7 30  1  1
  7 31  1  0
  8  9  1  0
  8 32  1  6
  8 33  1  0
  9 10  1  0
  9 34  1  6
  9 35  1  0
 10 11  1  6
 10 12  1  0
 10 24  1  0
 12 13  2  0
 12 14  1  0
 14 23  2  0
 14 15  1  0
 15 16  2  0
 15 36  1  0
 16 17  1  0
 16 37  1  0
 17 18  1  0
 17 22  2  0
 18 19  1  6
 18 20  1  0
 18 21  1  0
 22 23  1  0
 22 38  1  0
 23 39  1  0
 24 40  1  1
 24 41  1  0
M  END
$$$$
