ZINC000088059571
     RDKit          3D

 36 37  0  0  1  0  0  0  0  0999 V2000
   -0.0187    1.5258    0.0104 C   0  0  1  0  0  0  0  0  0  0  0  0
    0.0021   -0.0041    0.0020 C   0  0  1  0  0  0  0  0  0  0  0  0
   -1.0205   -0.3815    0.0098 H   0  0  0  0  0  0  0  0  0  0  0  0
    0.7196   -0.4984   -1.2584 C   0  0  1  0  0  0  0  0  0  0  0  0
    0.8426   -1.9623   -1.1812 N   0  0  0  0  0  0  0  0  0  0  0  0
    0.3716   -2.9242   -2.4442 S   0  0  1  0  0  0  0  0  0  0  0  0
    0.0913   -4.2030   -1.8918 O   0  0  0  0  0  0  0  0  0  0  0  0
   -0.5786   -2.1734   -3.1877 O   0  0  0  0  0  0  0  0  0  0  0  0
    1.7724   -3.1313   -3.4927 C   0  0  0  0  0  0  0  0  0  0  0  0
    2.0042   -2.2371   -4.5212 C   0  0  0  0  0  0  0  0  0  0  0  0
    3.1032   -2.3996   -5.3438 C   0  0  0  0  0  0  0  0  0  0  0  0
    3.9707   -3.4560   -5.1376 C   0  0  0  0  0  0  0  0  0  0  0  0
    5.1685   -3.6334   -6.0347 C   0  0  1  0  0  0  0  0  0  0  0  0
    6.2587   -2.9388   -5.4998 F   0  0  0  0  0  0  0  0  0  0  0  0
    5.4830   -4.9933   -6.1293 F   0  0  0  0  0  0  0  0  0  0  0  0
    4.8759   -3.1327   -7.3079 F   0  0  0  0  0  0  0  0  0  0  0  0
    3.7397   -4.3493   -4.1083 C   0  0  0  0  0  0  0  0  0  0  0  0
    2.6428   -4.1846   -3.2833 C   0  0  0  0  0  0  0  0  0  0  0  0
    1.3963   -2.5474    0.0497 C   0  0  1  0  0  0  0  0  0  0  0  0
    0.6469   -1.9564    1.2484 C   0  0  1  0  0  0  0  0  0  0  0  0
    0.7126   -0.4906    1.1914 N   0  0  1  0  0  0  0  0  0  0  0  0
    1.6778   -0.1999    1.1472 H   0  0  0  0  0  0  0  0  0  0  0  0
    0.2835   -0.1035    2.0185 H   0  0  0  0  0  0  0  0  0  0  0  0
    1.0039    1.9031    0.0027 H   0  0  0  0  0  0  0  0  0  0  0  0
   -0.5459    1.8868   -0.8726 H   0  0  0  0  0  0  0  0  0  0  0  0
   -0.5289    1.8773    0.9072 H   0  0  0  0  0  0  0  0  0  0  0  0
    0.1403   -0.2255   -2.1405 H   0  0  0  0  0  0  0  0  0  0  0  0
    1.7115   -0.0499   -1.3149 H   0  0  0  0  0  0  0  0  0  0  0  0
    1.3264   -1.4118   -4.6822 H   0  0  0  0  0  0  0  0  0  0  0  0
    3.2839   -1.7015   -6.1477 H   0  0  0  0  0  0  0  0  0  0  0  0
    4.4176   -5.1744   -3.9470 H   0  0  0  0  0  0  0  0  0  0  0  0
    2.4623   -4.8826   -2.4792 H   0  0  0  0  0  0  0  0  0  0  0  0
    1.2645   -3.6293    0.0325 H   0  0  0  0  0  0  0  0  0  0  0  0
    2.4566   -2.3059    0.1253 H   0  0  0  0  0  0  0  0  0  0  0  0
   -0.3951   -2.2749    1.2185 H   0  0  0  0  0  0  0  0  0  0  0  0
    1.1072   -2.3052    2.1728 H   0  0  0  0  0  0  0  0  0  0  0  0
  1  2  1  0
  1 24  1  6
  1 25  1  0
  1 26  1  0
  2  3  1  1
  2 21  1  0
  2  4  1  0
  4  5  1  0
  4 27  1  6
  4 28  1  0
  6  5  1  1
  5 19  1  0
  6  7  2  0
  6  8  2  0
  6  9  1  0
  9 18  2  0
  9 10  1  0
 10 11  2  0
 10 29  1  0
 11 12  1  0
 11 30  1  0
 12 13  1  0
 12 17  2  0
 13 14  1  1
 13 15  1  0
 13 16  1  0
 17 18  1  0
 17 31  1  0
 18 32  1  0
 19 20  1  0
 19 33  1  6
 19 34  1  0
 20 21  1  0
 20 35  1  1
 20 36  1  0
 21 22  1  6
 21 23  1  0
M  CHG  1  21   1
M  END
$$$$
