ZINC000004838957
     RDKit          3D

 57 58  0  0  1  0  0  0  0  0999 V2000
   -0.0187    1.5258    0.0104 C   0  0  1  0  0  0  0  0  0  0  0  0
    0.0021   -0.0041    0.0020 C   0  0  1  0  0  0  0  0  0  0  0  0
    0.7182   -0.4975   -1.2568 C   0  0  1  0  0  0  0  0  0  0  0  0
    1.7103   -0.0491   -1.3098 H   0  0  0  0  0  0  0  0  0  0  0  0
    0.8493   -2.0210   -1.2049 C   0  0  1  0  0  0  0  0  0  0  0  0
   -0.0549   -0.1139   -2.4405 N   0  0  0  0  0  0  0  0  0  0  0  0
    0.5610    0.0279   -3.6309 C   0  0  0  0  0  0  0  0  0  0  0  0
    1.7554   -0.1622   -3.7221 O   0  0  0  0  0  0  0  0  0  0  0  0
   -0.2343    0.4225   -4.8486 C   0  0  1  0  0  0  0  0  0  0  0  0
    0.6578    0.5093   -6.0075 N   0  0  0  0  0  0  0  0  0  0  0  0
    0.9760   -0.6949   -6.7787 C   0  0  1  0  0  0  0  0  0  0  0  0
   -0.1001   -0.9320   -7.8067 C   0  0  0  0  0  0  0  0  0  0  0  0
   -1.2033   -1.7015   -7.4878 C   0  0  0  0  0  0  0  0  0  0  0  0
   -2.1904   -1.9190   -8.4308 C   0  0  0  0  0  0  0  0  0  0  0  0
   -2.0745   -1.3665   -9.6926 C   0  0  0  0  0  0  0  0  0  0  0  0
   -0.9718   -0.5962  -10.0113 C   0  0  0  0  0  0  0  0  0  0  0  0
    0.0132   -0.3752   -9.0669 C   0  0  0  0  0  0  0  0  0  0  0  0
    1.3064    1.9686   -6.4456 S   0  0  1  0  0  0  0  0  0  0  0  0
    1.6313    1.8654   -7.8251 O   0  0  0  0  0  0  0  0  0  0  0  0
    0.4392    2.9661   -5.9239 O   0  0  0  0  0  0  0  0  0  0  0  0
    2.8350    2.1392   -5.5859 C   0  0  0  0  0  0  0  0  0  0  0  0
    2.8610    2.7283   -4.3359 C   0  0  0  0  0  0  0  0  0  0  0  0
    4.0582    2.8649   -3.6573 C   0  0  0  0  0  0  0  0  0  0  0  0
    5.2347    2.4103   -4.2301 C   0  0  0  0  0  0  0  0  0  0  0  0
    6.4128    2.5435   -3.5639 O   0  0  0  0  0  0  0  0  0  0  0  0
    6.3638    3.1620   -2.2766 C   0  0  1  0  0  0  0  0  0  0  0  0
    5.2084    1.8166   -5.4887 C   0  0  0  0  0  0  0  0  0  0  0  0
    6.3607    1.3683   -6.0550 O   0  0  0  0  0  0  0  0  0  0  0  0
    6.2579    0.7699   -7.3486 C   0  0  1  0  0  0  0  0  0  0  0  0
    4.0051    1.6782   -6.1609 C   0  0  0  0  0  0  0  0  0  0  0  0
    1.0039    1.9031    0.0027 H   0  0  0  0  0  0  0  0  0  0  0  0
   -0.5459    1.8868   -0.8726 H   0  0  0  0  0  0  0  0  0  0  0  0
   -0.5289    1.8773    0.9072 H   0  0  0  0  0  0  0  0  0  0  0  0
    0.5293   -0.3651    0.8851 H   0  0  0  0  0  0  0  0  0  0  0  0
   -1.0205   -0.3814    0.0098 H   0  0  0  0  0  0  0  0  0  0  0  0
   -0.1428   -2.4694   -1.1520 H   0  0  0  0  0  0  0  0  0  0  0  0
    1.3594   -2.3725   -2.1017 H   0  0  0  0  0  0  0  0  0  0  0  0
    1.4245   -2.3064   -0.3242 H   0  0  0  0  0  0  0  0  0  0  0  0
   -1.0102    0.0381   -2.3676 H   0  0  0  0  0  0  0  0  0  0  0  0
   -1.0041   -0.3256   -5.0379 H   0  0  0  0  0  0  0  0  0  0  0  0
   -0.7034    1.3915   -4.6778 H   0  0  0  0  0  0  0  0  0  0  0  0
    1.9347   -0.5625   -7.2801 H   0  0  0  0  0  0  0  0  0  0  0  0
    1.0324   -1.5519   -6.1075 H   0  0  0  0  0  0  0  0  0  0  0  0
   -1.2938   -2.1331   -6.5019 H   0  0  0  0  0  0  0  0  0  0  0  0
   -3.0519   -2.5208   -8.1818 H   0  0  0  0  0  0  0  0  0  0  0  0
   -2.8454   -1.5370  -10.4296 H   0  0  0  0  0  0  0  0  0  0  0  0
   -0.8811   -0.1649  -10.9973 H   0  0  0  0  0  0  0  0  0  0  0  0
    0.8747    0.2266   -9.3159 H   0  0  0  0  0  0  0  0  0  0  0  0
    1.9444    3.0831   -3.8883 H   0  0  0  0  0  0  0  0  0  0  0  0
    4.0759    3.3263   -2.6810 H   0  0  0  0  0  0  0  0  0  0  0  0
    5.9665    4.1723   -2.3738 H   0  0  0  0  0  0  0  0  0  0  0  0
    5.7192    2.5799   -1.6181 H   0  0  0  0  0  0  0  0  0  0  0  0
    7.3685    3.2056   -1.8560 H   0  0  0  0  0  0  0  0  0  0  0  0
    5.8482    1.4943   -8.0525 H   0  0  0  0  0  0  0  0  0  0  0  0
    7.2468    0.4569   -7.6837 H   0  0  0  0  0  0  0  0  0  0  0  0
    5.6005   -0.0979   -7.2962 H   0  0  0  0  0  0  0  0  0  0  0  0
    3.9819    1.2179   -7.1376 H   0  0  0  0  0  0  0  0  0  0  0  0
  1  2  1  0
  1 31  1  6
  1 32  1  0
  1 33  1  0
  2  3  1  0
  2 34  1  1
  2 35  1  0
  3  4  1  6
  3  5  1  0
  3  6  1  0
  5 36  1  1
  5 37  1  0
  5 38  1  0
  6  7  1  0
  6 39  1  0
  7  8  2  0
  7  9  1  0
  9 10  1  0
  9 40  1  6
  9 41  1  0
 10 11  1  0
 18 10  1  1
 11 12  1  0
 11 42  1  6
 11 43  1  0
 12 17  2  0
 12 13  1  0
 13 14  2  0
 13 44  1  0
 14 15  1  0
 14 45  1  0
 15 16  2  0
 15 46  1  0
 16 17  1  0
 16 47  1  0
 17 48  1  0
 18 19  2  0
 18 20  2  0
 18 21  1  0
 21 30  2  0
 21 22  1  0
 22 23  2  0
 22 49  1  0
 23 24  1  0
 23 50  1  0
 24 25  1  0
 24 27  2  0
 25 26  1  0
 26 51  1  6
 26 52  1  0
 26 53  1  0
 27 28  1  0
 27 30  1  0
 28 29  1  0
 29 54  1  6
 29 55  1  0
 29 56  1  0
 30 57  1  0
M  END
$$$$
