ZINC000048325506
     RDKit          3D

 52 53  0  0  1  0  0  0  0  0999 V2000
   -0.0187    1.5258    0.0104 C   0  0  1  0  0  0  0  0  0  0  0  0
    0.0021   -0.0041    0.0020 C   0  0  1  0  0  0  0  0  0  0  0  0
    0.7182   -0.4975   -1.2568 C   0  0  1  0  0  0  0  0  0  0  0  0
    0.7126   -0.4907    1.1921 N   0  0  1  0  0  0  0  0  0  0  0  0
    1.6592   -0.1415    1.1850 H   0  0  0  0  0  0  0  0  0  0  0  0
    0.0250   -0.0169    2.4007 C   0  0  1  0  0  0  0  0  0  0  0  0
    0.7325   -1.9595    1.1840 C   0  0  1  0  0  0  0  0  0  0  0  0
    1.5652   -2.4570    2.3374 C   0  0  0  0  0  0  0  0  0  0  0  0
    2.0904   -1.6658    3.0918 O   0  0  0  0  0  0  0  0  0  0  0  0
    1.7264   -3.7811    2.5305 N   0  0  0  0  0  0  0  0  0  0  0  0
    1.1009   -4.7512    1.6208 C   0  0  1  0  0  0  0  0  0  0  0  0
    2.1906   -5.6788    1.0690 C   0  0  1  0  0  0  0  0  0  0  0  0
    2.9953   -6.1783    2.1927 N   0  0  0  0  0  0  0  0  0  0  0  0
    3.1942   -7.8052    2.4294 S   0  0  1  0  0  0  0  0  0  0  0  0
    3.5042   -7.9756    3.8056 O   0  0  0  0  0  0  0  0  0  0  0  0
    2.0918   -8.4404    1.7966 O   0  0  0  0  0  0  0  0  0  0  0  0
    4.6306   -8.2910    1.5319 C   0  0  0  0  0  0  0  0  0  0  0  0
    4.5183   -8.6989    0.2159 C   0  0  0  0  0  0  0  0  0  0  0  0
    5.6452   -9.0800   -0.4881 C   0  0  0  0  0  0  0  0  0  0  0  0
    6.8845   -9.0529    0.1237 C   0  0  0  0  0  0  0  0  0  0  0  0
    8.1130   -9.4689   -0.6437 C   0  0  1  0  0  0  0  0  0  0  0  0
    8.6640   -8.3528   -1.2824 F   0  0  0  0  0  0  0  0  0  0  0  0
    9.0526  -10.0121    0.2391 F   0  0  0  0  0  0  0  0  0  0  0  0
    7.7628  -10.4279   -1.6001 F   0  0  0  0  0  0  0  0  0  0  0  0
    6.9970   -8.6437    1.4393 C   0  0  0  0  0  0  0  0  0  0  0  0
    5.8706   -8.2589    2.1422 C   0  0  0  0  0  0  0  0  0  0  0  0
    3.6208   -5.2082    3.1024 C   0  0  1  0  0  0  0  0  0  0  0  0
    2.5357   -4.2805    3.6509 C   0  0  1  0  0  0  0  0  0  0  0  0
    1.0039    1.9031    0.0027 H   0  0  0  0  0  0  0  0  0  0  0  0
   -0.5459    1.8868   -0.8726 H   0  0  0  0  0  0  0  0  0  0  0  0
   -0.5289    1.8773    0.9072 H   0  0  0  0  0  0  0  0  0  0  0  0
   -1.0205   -0.3814    0.0098 H   0  0  0  0  0  0  0  0  0  0  0  0
    1.7408   -0.1202   -1.2645 H   0  0  0  0  0  0  0  0  0  0  0  0
    0.7330   -1.5874   -1.2628 H   0  0  0  0  0  0  0  0  0  0  0  0
    0.1910   -0.1364   -2.1398 H   0  0  0  0  0  0  0  0  0  0  0  0
   -0.9976   -0.3942    2.4085 H   0  0  0  0  0  0  0  0  0  0  0  0
    0.5522   -0.3780    3.2838 H   0  0  0  0  0  0  0  0  0  0  0  0
    0.0102    1.0729    2.4067 H   0  0  0  0  0  0  0  0  0  0  0  0
   -0.2853   -2.3372    1.2813 H   0  0  0  0  0  0  0  0  0  0  0  0
    1.1628   -2.3119    0.2466 H   0  0  0  0  0  0  0  0  0  0  0  0
    0.3614   -5.3387    2.1648 H   0  0  0  0  0  0  0  0  0  0  0  0
    0.6190   -4.2231    0.7980 H   0  0  0  0  0  0  0  0  0  0  0  0
    1.7281   -6.5176    0.5489 H   0  0  0  0  0  0  0  0  0  0  0  0
    2.8284   -5.1247    0.3802 H   0  0  0  0  0  0  0  0  0  0  0  0
    3.5501   -8.7201   -0.2621 H   0  0  0  0  0  0  0  0  0  0  0  0
    5.5574   -9.3993   -1.5161 H   0  0  0  0  0  0  0  0  0  0  0  0
    7.9653   -8.6222    1.9172 H   0  0  0  0  0  0  0  0  0  0  0  0
    5.9585   -7.9393    3.1700 H   0  0  0  0  0  0  0  0  0  0  0  0
    4.1027   -5.7362    3.9252 H   0  0  0  0  0  0  0  0  0  0  0  0
    4.3603   -4.6206    2.5584 H   0  0  0  0  0  0  0  0  0  0  0  0
    2.9995   -3.4422    4.1708 H   0  0  0  0  0  0  0  0  0  0  0  0
    1.8962   -4.8327    4.3396 H   0  0  0  0  0  0  0  0  0  0  0  0
  1  2  1  0
  1 29  1  6
  1 30  1  0
  1 31  1  0
  2  3  1  0
  2  4  1  0
  2 32  1  1
  3 33  1  6
  3 34  1  0
  3 35  1  0
  4  5  1  6
  4  6  1  0
  4  7  1  0
  6 36  1  1
  6 37  1  0
  6 38  1  0
  7  8  1  0
  7 39  1  1
  7 40  1  0
  8  9  2  0
  8 10  1  0
 10 28  1  0
 10 11  1  0
 11 12  1  0
 11 41  1  1
 11 42  1  0
 12 13  1  0
 12 43  1  6
 12 44  1  0
 14 13  1  1
 13 27  1  0
 14 15  2  0
 14 16  2  0
 14 17  1  0
 17 26  2  0
 17 18  1  0
 18 19  2  0
 18 45  1  0
 19 20  1  0
 19 46  1  0
 20 21  1  0
 20 25  2  0
 21 22  1  6
 21 23  1  0
 21 24  1  0
 25 26  1  0
 25 47  1  0
 26 48  1  0
 27 28  1  0
 27 49  1  1
 27 50  1  0
 28 51  1  1
 28 52  1  0
M  CHG  1   4   1
M  END
$$$$
