ZINC000024712242
     RDKit          3D

 40 41  0  0  1  0  0  0  0  0999 V2000
    0.4686    1.5188   -0.1560 C   0  0  1  0  0  0  0  0  0  0  0  0
    0.5007    0.0543   -0.1426 N   0  0  0  0  0  0  0  0  0  0  0  0
    1.0700   -0.6554    1.0057 C   0  0  1  0  0  0  0  0  0  0  0  0
    0.0066   -0.6403   -1.1866 C   0  0  0  0  0  0  0  0  0  0  0  0
   -0.4646   -0.0528   -2.1372 O   0  0  0  0  0  0  0  0  0  0  0  0
    0.0397   -2.1468   -1.1728 C   0  0  1  0  0  0  0  0  0  0  0  0
    0.9789   -2.4929   -0.7411 H   0  0  0  0  0  0  0  0  0  0  0  0
   -1.1476   -2.6903   -0.3504 C   0  0  1  0  0  0  0  0  0  0  0  0
   -2.2024   -3.0206   -1.4393 C   0  0  1  0  0  0  0  0  0  0  0  0
   -1.3054   -3.5167   -2.6008 C   0  0  1  0  0  0  0  0  0  0  0  0
   -0.1013   -2.6626   -2.5423 N   0  0  0  0  0  0  0  0  0  0  0  0
    0.9149   -2.3390   -3.8092 S   0  0  1  0  0  0  0  0  0  0  0  0
    0.1235   -2.4120   -4.9871 O   0  0  0  0  0  0  0  0  0  0  0  0
    1.6583   -1.1848   -3.4426 O   0  0  0  0  0  0  0  0  0  0  0  0
    2.0704   -3.6659   -3.9031 C   0  0  0  0  0  0  0  0  0  0  0  0
    3.1994   -3.6569   -3.1058 C   0  0  0  0  0  0  0  0  0  0  0  0
    4.1060   -4.6980   -3.1795 C   0  0  0  0  0  0  0  0  0  0  0  0
    3.8832   -5.7481   -4.0501 C   0  0  0  0  0  0  0  0  0  0  0  0
    2.7534   -5.7576   -4.8470 C   0  0  0  0  0  0  0  0  0  0  0  0
    2.5107   -6.9023   -5.7966 C   0  0  1  0  0  0  0  0  0  0  0  0
    3.5576   -7.8246   -5.6925 F   0  0  0  0  0  0  0  0  0  0  0  0
    1.3029   -7.5293   -5.4722 F   0  0  0  0  0  0  0  0  0  0  0  0
    2.4465   -6.4158   -7.1067 F   0  0  0  0  0  0  0  0  0  0  0  0
    1.8449   -4.7189   -4.7702 C   0  0  0  0  0  0  0  0  0  0  0  0
    1.3851    1.8983   -0.6077 H   0  0  0  0  0  0  0  0  0  0  0  0
   -0.3897    1.8581   -0.7360 H   0  0  0  0  0  0  0  0  0  0  0  0
    0.3863    1.8899    0.8656 H   0  0  0  0  0  0  0  0  0  0  0  0
    0.2866   -0.8476    1.7388 H   0  0  0  0  0  0  0  0  0  0  0  0
    1.4963   -1.6018    0.6730 H   0  0  0  0  0  0  0  0  0  0  0  0
    1.8505   -0.0448    1.4597 H   0  0  0  0  0  0  0  0  0  0  0  0
   -0.8602   -3.5901    0.1936 H   0  0  0  0  0  0  0  0  0  0  0  0
   -1.5241   -1.9291    0.3329 H   0  0  0  0  0  0  0  0  0  0  0  0
   -2.8774   -3.8077   -1.1034 H   0  0  0  0  0  0  0  0  0  0  0  0
   -2.7580   -2.1285   -1.7283 H   0  0  0  0  0  0  0  0  0  0  0  0
   -1.0350   -4.5620   -2.4515 H   0  0  0  0  0  0  0  0  0  0  0  0
   -1.8156   -3.3886   -3.5555 H   0  0  0  0  0  0  0  0  0  0  0  0
    3.3735   -2.8363   -2.4255 H   0  0  0  0  0  0  0  0  0  0  0  0
    4.9885   -4.6906   -2.5570 H   0  0  0  0  0  0  0  0  0  0  0  0
    4.5918   -6.5611   -4.1082 H   0  0  0  0  0  0  0  0  0  0  0  0
    0.9624   -4.7263   -5.3927 H   0  0  0  0  0  0  0  0  0  0  0  0
  1  2  1  0
  1 25  1  6
  1 26  1  0
  1 27  1  0
  2  3  1  0
  2  4  1  0
  3 28  1  1
  3 29  1  0
  3 30  1  0
  4  5  2  0
  4  6  1  0
  6  7  1  1
  6 11  1  0
  6  8  1  0
  8  9  1  0
  8 31  1  1
  8 32  1  0
  9 10  1  0
  9 33  1  1
  9 34  1  0
 10 11  1  0
 10 35  1  1
 10 36  1  0
 12 11  1  1
 12 13  2  0
 12 14  2  0
 12 15  1  0
 15 24  2  0
 15 16  1  0
 16 17  2  0
 16 37  1  0
 17 18  1  0
 17 38  1  0
 18 19  2  0
 18 39  1  0
 19 20  1  0
 19 24  1  0
 20 21  1  6
 20 22  1  0
 20 23  1  0
 24 40  1  0
M  END
$$$$
