ZINC000079016384
     RDKit          3D

 53 55  0  0  1  0  0  0  0  0999 V2000
    0.0522    1.9959    0.1487 C   0  0  1  0  0  0  0  0  0  0  0  0
    0.1315    0.4837   -0.0699 C   0  0  1  0  0  0  0  0  0  0  0  0
   -1.2223   -0.0660   -0.1761 N   0  0  0  0  0  0  0  0  0  0  0  0
   -1.9171   -0.0576   -1.4658 C   0  0  1  0  0  0  0  0  0  0  0  0
   -1.5105   -1.2926   -2.2723 C   0  0  1  0  0  0  0  0  0  0  0  0
   -1.9671   -0.6969    1.1616 S   0  0  1  0  0  0  0  0  0  0  0  0
   -2.9487   -1.6061    0.6830 O   0  0  0  0  0  0  0  0  0  0  0  0
   -0.9307   -1.0729    2.0581 O   0  0  0  0  0  0  0  0  0  0  0  0
   -2.8445    0.6186    1.9391 C   0  0  0  0  0  0  0  0  0  0  0  0
   -2.2195    1.3932    2.8987 C   0  0  0  0  0  0  0  0  0  0  0  0
   -2.9049    2.4264    3.5116 C   0  0  0  0  0  0  0  0  0  0  0  0
   -4.2161    2.6877    3.1663 C   0  0  0  0  0  0  0  0  0  0  0  0
   -4.8467    1.9116    2.2023 C   0  0  0  0  0  0  0  0  0  0  0  0
   -6.1751    2.1740    1.8499 N   0  0  0  0  0  0  0  0  0  0  0  0
   -6.6389    3.4394    1.8647 C   0  0  0  0  0  0  0  0  0  0  0  0
   -5.8822    4.3600    2.0901 O   0  0  0  0  0  0  0  0  0  0  0  0
   -8.0978    3.7104    1.6013 C   0  0  1  0  0  0  0  0  0  0  0  0
   -8.3412    5.1167    1.6711 O   0  0  0  0  0  0  0  0  0  0  0  0
   -9.6166    5.5335    1.4558 C   0  0  0  0  0  0  0  0  0  0  0  0
  -10.6118    4.6043    1.1889 C   0  0  0  0  0  0  0  0  0  0  0  0
  -11.9079    5.0327    0.9667 C   0  0  0  0  0  0  0  0  0  0  0  0
  -12.2075    6.3764    1.0120 C   0  0  0  0  0  0  0  0  0  0  0  0
  -11.2225    7.3179    1.2857 C   0  0  0  0  0  0  0  0  0  0  0  0
   -9.9195    6.8836    1.5093 C   0  0  0  0  0  0  0  0  0  0  0  0
  -11.7372    8.5781    1.3045 O   0  0  0  0  0  0  0  0  0  0  0  0
  -12.9962    8.5857    0.6102 C   0  0  1  0  0  0  0  0  0  0  0  0
  -13.5031    7.1370    0.8043 C   0  0  1  0  0  0  0  0  0  0  0  0
  -14.1435    7.0629    1.6832 H   0  0  0  0  0  0  0  0  0  0  0  0
  -14.1861    6.6744   -0.3626 O   0  0  0  0  0  0  0  0  0  0  0  0
   -4.1542    0.8784    1.5851 C   0  0  0  0  0  0  0  0  0  0  0  0
    1.0595    2.4049    0.2277 H   0  0  0  0  0  0  0  0  0  0  0  0
   -0.4626    2.4582   -0.6936 H   0  0  0  0  0  0  0  0  0  0  0  0
   -0.4967    2.2019    1.0675 H   0  0  0  0  0  0  0  0  0  0  0  0
    0.6805    0.2776   -0.9887 H   0  0  0  0  0  0  0  0  0  0  0  0
    0.6463    0.0213    0.7724 H   0  0  0  0  0  0  0  0  0  0  0  0
   -2.9941   -0.0715   -1.2984 H   0  0  0  0  0  0  0  0  0  0  0  0
   -1.6468    0.8422   -2.0183 H   0  0  0  0  0  0  0  0  0  0  0  0
   -1.7808   -2.1925   -1.7198 H   0  0  0  0  0  0  0  0  0  0  0  0
   -2.0275   -1.2864   -3.2319 H   0  0  0  0  0  0  0  0  0  0  0  0
   -0.4335   -1.2788   -2.4397 H   0  0  0  0  0  0  0  0  0  0  0  0
   -1.1941    1.1909    3.1705 H   0  0  0  0  0  0  0  0  0  0  0  0
   -2.4141    3.0293    4.2613 H   0  0  0  0  0  0  0  0  0  0  0  0
   -4.7509    3.4944    3.6455 H   0  0  0  0  0  0  0  0  0  0  0  0
   -6.7623    1.4452    1.5948 H   0  0  0  0  0  0  0  0  0  0  0  0
   -8.3618    3.3448    0.6089 H   0  0  0  0  0  0  0  0  0  0  0  0
   -8.7032    3.1992    2.3498 H   0  0  0  0  0  0  0  0  0  0  0  0
  -10.3753    3.5511    1.1544 H   0  0  0  0  0  0  0  0  0  0  0  0
  -12.6856    4.3132    0.7573 H   0  0  0  0  0  0  0  0  0  0  0  0
   -9.1407    7.6022    1.7175 H   0  0  0  0  0  0  0  0  0  0  0  0
  -13.6834    9.2993    1.0646 H   0  0  0  0  0  0  0  0  0  0  0  0
  -12.8525    8.8061   -0.4475 H   0  0  0  0  0  0  0  0  0  0  0  0
  -14.9722    7.1902   -0.5886 H   0  0  0  0  0  0  0  0  0  0  0  0
   -4.6417    0.2731    0.8352 H   0  0  0  0  0  0  0  0  0  0  0  0
  1  2  1  0
  1 31  1  1
  1 32  1  0
  1 33  1  0
  2  3  1  0
  2 34  1  6
  2 35  1  0
  3  4  1  0
  6  3  1  6
  4  5  1  0
  4 36  1  1
  4 37  1  0
  5 38  1  1
  5 39  1  0
  5 40  1  0
  6  7  2  0
  6  8  2  0
  6  9  1  0
  9 30  2  0
  9 10  1  0
 10 11  2  0
 10 41  1  0
 11 12  1  0
 11 42  1  0
 12 13  2  0
 12 43  1  0
 13 14  1  0
 13 30  1  0
 14 15  1  0
 14 44  1  0
 15 16  2  0
 15 17  1  0
 17 18  1  0
 17 45  1  6
 17 46  1  0
 18 19  1  0
 19 24  2  0
 19 20  1  0
 20 21  2  0
 20 47  1  0
 21 22  1  0
 21 48  1  0
 22 27  1  0
 22 23  2  0
 23 24  1  0
 23 25  1  0
 24 49  1  0
 25 26  1  0
 26 27  1  0
 26 50  1  1
 26 51  1  0
 27 28  1  1
 27 29  1  0
 29 52  1  0
 30 53  1  0
M  END
$$$$
