ZINC000032980224
     RDKit          3D

 46 48  0  0  0  0  0  0  0  0999 V2000
   -1.8695    2.1468   -2.6041 C   0  0  1  0  0  0  0  0  0  0  0  0
   -2.1078    0.6587   -2.6018 C   0  0  0  0  0  0  0  0  0  0  0  0
   -3.0083    0.1899   -1.9382 O   0  0  0  0  0  0  0  0  0  0  0  0
   -1.3204   -0.1510   -3.3370 N   0  0  0  0  0  0  0  0  0  0  0  0
   -0.2217    0.4025   -4.1411 C   0  0  1  0  0  0  0  0  0  0  0  0
    1.0818   -0.2980   -3.7379 C   0  0  1  0  0  0  0  0  0  0  0  0
    0.8575   -1.7504   -3.7496 N   0  0  0  0  0  0  0  0  0  0  0  0
    1.6455   -2.5602   -4.4842 C   0  0  0  0  0  0  0  0  0  0  0  0
    2.4896   -2.0844   -5.2186 O   0  0  0  0  0  0  0  0  0  0  0  0
    1.4837   -4.0250   -4.3972 C   0  0  0  0  0  0  0  0  0  0  0  0
    1.4626   -4.6561   -3.1536 C   0  0  0  0  0  0  0  0  0  0  0  0
    1.3111   -6.0254   -3.0780 C   0  0  0  0  0  0  0  0  0  0  0  0
    1.1799   -6.7807   -4.2313 C   0  0  0  0  0  0  0  0  0  0  0  0
    1.1985   -6.1732   -5.4710 C   0  0  0  0  0  0  0  0  0  0  0  0
    1.3440   -4.7925   -5.5677 C   0  0  0  0  0  0  0  0  0  0  0  0
    1.3645   -4.1362   -6.8962 C   0  0  0  0  0  0  0  0  0  0  0  0
    0.4682   -3.1072   -7.1824 C   0  0  0  0  0  0  0  0  0  0  0  0
    0.4920   -2.4999   -8.4213 C   0  0  0  0  0  0  0  0  0  0  0  0
    1.4027   -2.9102   -9.3784 C   0  0  0  0  0  0  0  0  0  0  0  0
    1.4235   -2.2429  -10.7294 C   0  0  1  0  0  0  0  0  0  0  0  0
    2.3003   -1.1532  -10.6979 F   0  0  0  0  0  0  0  0  0  0  0  0
    1.8529   -3.1591  -11.6955 F   0  0  0  0  0  0  0  0  0  0  0  0
    0.1366   -1.7968  -11.0491 F   0  0  0  0  0  0  0  0  0  0  0  0
    2.2947   -3.9303   -9.1001 C   0  0  0  0  0  0  0  0  0  0  0  0
    2.2839   -4.5415   -7.8629 C   0  0  0  0  0  0  0  0  0  0  0  0
   -0.2412   -2.3039   -2.9456 C   0  0  1  0  0  0  0  0  0  0  0  0
   -1.5412   -1.6040   -3.3444 C   0  0  1  0  0  0  0  0  0  0  0  0
   -1.1716    2.4042   -1.8073 H   0  0  0  0  0  0  0  0  0  0  0  0
   -1.4505    2.4461   -3.5648 H   0  0  0  0  0  0  0  0  0  0  0  0
   -2.8139    2.6663   -2.4419 H   0  0  0  0  0  0  0  0  0  0  0  0
   -0.4187    0.2282   -5.1988 H   0  0  0  0  0  0  0  0  0  0  0  0
   -0.1348    1.4728   -3.9541 H   0  0  0  0  0  0  0  0  0  0  0  0
    1.8685   -0.0436   -4.4481 H   0  0  0  0  0  0  0  0  0  0  0  0
    1.3729    0.0191   -2.7365 H   0  0  0  0  0  0  0  0  0  0  0  0
    1.5651   -4.0733   -2.2501 H   0  0  0  0  0  0  0  0  0  0  0  0
    1.2952   -6.5112   -2.1136 H   0  0  0  0  0  0  0  0  0  0  0  0
    1.0626   -7.8520   -4.1605 H   0  0  0  0  0  0  0  0  0  0  0  0
    1.0956   -6.7691   -6.3658 H   0  0  0  0  0  0  0  0  0  0  0  0
   -0.2435   -2.7864   -6.4361 H   0  0  0  0  0  0  0  0  0  0  0  0
   -0.2020   -1.7030   -8.6443 H   0  0  0  0  0  0  0  0  0  0  0  0
    3.0035   -4.2463   -9.8512 H   0  0  0  0  0  0  0  0  0  0  0  0
    2.9810   -5.3376   -7.6466 H   0  0  0  0  0  0  0  0  0  0  0  0
   -0.3281   -3.3742   -3.1326 H   0  0  0  0  0  0  0  0  0  0  0  0
   -0.0443   -2.1296   -1.8878 H   0  0  0  0  0  0  0  0  0  0  0  0
   -2.3270   -1.8592   -2.6335 H   0  0  0  0  0  0  0  0  0  0  0  0
   -1.8340   -1.9191   -4.3459 H   0  0  0  0  0  0  0  0  0  0  0  0
  1  2  1  0
  1 28  1  1
  1 29  1  0
  1 30  1  0
  2  3  2  0
  2  4  1  0
  4 27  1  0
  4  5  1  0
  5  6  1  0
  5 31  1  6
  5 32  1  0
  6  7  1  0
  6 33  1  6
  6 34  1  0
  7  8  1  0
  7 26  1  0
  8  9  2  0
  8 10  1  0
 10 15  2  0
 10 11  1  0
 11 12  2  0
 11 35  1  0
 12 13  1  0
 12 36  1  0
 13 14  2  0
 13 37  1  0
 14 15  1  0
 14 38  1  0
 15 16  1  0
 16 25  2  0
 16 17  1  0
 17 18  2  0
 17 39  1  0
 18 19  1  0
 18 40  1  0
 19 20  1  0
 19 24  2  0
 20 21  1  1
 20 22  1  0
 20 23  1  0
 24 25  1  0
 24 41  1  0
 25 42  1  0
 26 27  1  0
 26 43  1  1
 26 44  1  0
 27 45  1  1
 27 46  1  0
M  END
$$$$
