ZINC000328595935
     RDKit          3D

 39 40  0  0  0  0  0  0  0  0999 V2000
   -0.0187    1.5258    0.0104 C   0  0  1  0  0  0  0  0  0  0  0  0
    0.0021   -0.0041    0.0020 C   0  0  1  0  0  0  0  0  0  0  0  0
    0.7421   -0.5109    1.2415 C   0  0  1  0  0  0  0  0  0  0  0  0
   -1.4117   -0.5257    0.0127 C   0  0  0  0  0  0  0  0  0  0  0  0
   -2.2589   -0.2051    1.0549 C   0  0  0  0  0  0  0  0  0  0  0  0
   -3.5564   -0.6838    1.0658 C   0  0  0  0  0  0  0  0  0  0  0  0
   -4.0100   -1.4842    0.0336 C   0  0  0  0  0  0  0  0  0  0  0  0
   -3.1680   -1.8084   -1.0122 C   0  0  0  0  0  0  0  0  0  0  0  0
   -1.8660   -1.3250   -1.0289 C   0  0  0  0  0  0  0  0  0  0  0  0
   -1.0119   -1.6508   -2.0850 N   0  0  0  0  0  0  0  0  0  0  0  0
   -1.5513   -2.6144   -3.3190 S   0  0  1  0  0  0  0  0  0  0  0  0
   -1.7847   -3.8971   -2.7539 O   0  0  0  0  0  0  0  0  0  0  0  0
   -2.5528   -1.8712   -4.0001 O   0  0  0  0  0  0  0  0  0  0  0  0
   -0.2163   -2.8058   -4.4530 C   0  0  0  0  0  0  0  0  0  0  0  0
    0.3457   -4.0512   -4.6551 C   0  0  0  0  0  0  0  0  0  0  0  0
    1.3938   -4.2020   -5.5446 C   0  0  0  0  0  0  0  0  0  0  0  0
    2.0052   -5.5619   -5.7632 C   0  0  1  0  0  0  0  0  0  0  0  0
    1.3349   -6.2126   -6.8046 F   0  0  0  0  0  0  0  0  0  0  0  0
    3.3563   -5.4178   -6.0963 F   0  0  0  0  0  0  0  0  0  0  0  0
    1.8919   -6.3180   -4.5915 F   0  0  0  0  0  0  0  0  0  0  0  0
    1.8815   -3.1073   -6.2338 C   0  0  0  0  0  0  0  0  0  0  0  0
    1.3224   -1.8595   -6.0355 C   0  0  0  0  0  0  0  0  0  0  0  0
    0.2675   -1.7065   -5.1478 C   0  0  0  0  0  0  0  0  0  0  0  0
   -0.2841   -0.4802   -4.9510 O   0  0  0  0  0  0  0  0  0  0  0  0
    1.0039    1.9031    0.0027 H   0  0  0  0  0  0  0  0  0  0  0  0
   -0.5459    1.8868   -0.8726 H   0  0  0  0  0  0  0  0  0  0  0  0
   -0.5289    1.8773    0.9072 H   0  0  0  0  0  0  0  0  0  0  0  0
    0.5123   -0.3556   -0.8948 H   0  0  0  0  0  0  0  0  0  0  0  0
    0.7568   -1.6008    1.2356 H   0  0  0  0  0  0  0  0  0  0  0  0
    1.7647   -0.1336    1.2338 H   0  0  0  0  0  0  0  0  0  0  0  0
    0.2319   -0.1594    2.1383 H   0  0  0  0  0  0  0  0  0  0  0  0
   -1.9077    0.4198    1.8627 H   0  0  0  0  0  0  0  0  0  0  0  0
   -4.2167   -0.4322    1.8825 H   0  0  0  0  0  0  0  0  0  0  0  0
   -5.0237   -1.8567    0.0454 H   0  0  0  0  0  0  0  0  0  0  0  0
   -3.5228   -2.4339   -1.8180 H   0  0  0  0  0  0  0  0  0  0  0  0
   -0.0334   -4.9079   -4.1178 H   0  0  0  0  0  0  0  0  0  0  0  0
    2.7003   -3.2276   -6.9277 H   0  0  0  0  0  0  0  0  0  0  0  0
    1.7039   -1.0045   -6.5740 H   0  0  0  0  0  0  0  0  0  0  0  0
   -1.0168   -0.2780   -5.5487 H   0  0  0  0  0  0  0  0  0  0  0  0
  1  2  1  0
  1 25  1  6
  1 26  1  0
  1 27  1  0
  2  3  1  0
  2  4  1  0
  2 28  1  6
  3 29  1  1
  3 30  1  0
  3 31  1  0
  4  9  2  0
  4  5  1  0
  5  6  2  0
  5 32  1  0
  6  7  1  0
  6 33  1  0
  7  8  2  0
  7 34  1  0
  8  9  1  0
  8 35  1  0
  9 10  1  0
 11 10  1  1
 11 12  2  0
 11 13  2  0
 11 14  1  0
 14 23  2  0
 14 15  1  0
 15 16  2  0
 15 36  1  0
 16 17  1  0
 16 21  1  0
 17 18  1  6
 17 19  1  0
 17 20  1  0
 21 22  2  0
 21 37  1  0
 22 23  1  0
 22 38  1  0
 23 24  1  0
 24 39  1  0
M  END
$$$$
