ZINC000003457874
     RDKit          3D

 42 43  0  0  1  0  0  0  0  0999 V2000
   -0.0360    1.5261    0.0492 C   0  0  1  0  0  0  0  0  0  0  0  0
   -0.0112   -0.0036    0.0311 C   0  0  1  0  0  0  0  0  0  0  0  0
    0.7107   -0.4943    1.2076 N   0  0  0  0  0  0  0  0  0  0  0  0
    0.0073   -0.6608    2.4819 C   0  0  1  0  0  0  0  0  0  0  0  0
   -0.6761   -2.0294    2.5123 C   0  0  1  0  0  0  0  0  0  0  0  0
    2.3218   -0.8609    1.0972 S   0  0  1  0  0  0  0  0  0  0  0  0
    2.5955   -1.7853    2.1411 O   0  0  0  0  0  0  0  0  0  0  0  0
    2.5773   -1.1379   -0.2730 O   0  0  0  0  0  0  0  0  0  0  0  0
    3.2182    0.6060    1.4837 C   0  0  0  0  0  0  0  0  0  0  0  0
    3.5554    1.4935    0.4784 C   0  0  0  0  0  0  0  0  0  0  0  0
    4.2580    2.6442    0.7781 C   0  0  0  0  0  0  0  0  0  0  0  0
    4.6253    2.9097    2.0908 C   0  0  0  0  0  0  0  0  0  0  0  0
    5.3367    4.0748    2.3979 N   0  0  0  0  0  0  0  0  0  0  0  0
    5.6731    4.5049    3.7601 C   0  0  1  0  0  0  0  0  0  0  0  0
    6.7952    5.5539    3.5959 C   0  0  2  0  0  0  0  0  0  0  0  0
    7.7781    5.0874    3.6624 H   0  0  0  0  0  0  0  0  0  0  0  0
    6.6551    6.6572    4.6127 C   0  0  0  0  0  0  0  0  0  0  0  0
    7.6460    7.1157    5.1553 O   0  0  0  0  0  0  0  0  0  0  0  0
    5.5507    7.0914    4.8929 O   0  0  0  0  0  0  0  0  0  0  0  0
    6.5280    6.0802    2.1667 C   0  0  1  0  0  0  0  0  0  0  0  0
    5.8048    4.9410    1.4827 C   0  0  0  0  0  0  0  0  0  0  0  0
    5.6617    4.8293    0.2835 O   0  0  0  0  0  0  0  0  0  0  0  0
    4.2847    2.0165    3.0982 C   0  0  0  0  0  0  0  0  0  0  0  0
    3.5779    0.8700    2.7926 C   0  0  0  0  0  0  0  0  0  0  0  0
    0.9855    1.9062    0.0334 H   0  0  0  0  0  0  0  0  0  0  0  0
   -0.5731    1.8912   -0.8261 H   0  0  0  0  0  0  0  0  0  0  0  0
   -0.5379    1.8707    0.9533 H   0  0  0  0  0  0  0  0  0  0  0  0
   -1.0327   -0.3837    0.0469 H   0  0  0  0  0  0  0  0  0  0  0  0
    0.4907   -0.3482   -0.8730 H   0  0  0  0  0  0  0  0  0  0  0  0
    0.7213   -0.5929    3.3026 H   0  0  0  0  0  0  0  0  0  0  0  0
   -0.7433    0.1225    2.5876 H   0  0  0  0  0  0  0  0  0  0  0  0
   -1.1994   -2.1532    3.4603 H   0  0  0  0  0  0  0  0  0  0  0  0
   -1.3901   -2.0973    1.6915 H   0  0  0  0  0  0  0  0  0  0  0  0
    0.0745   -2.8127    2.4066 H   0  0  0  0  0  0  0  0  0  0  0  0
    3.2695    1.2865   -0.5423 H   0  0  0  0  0  0  0  0  0  0  0  0
    4.5217    3.3367   -0.0076 H   0  0  0  0  0  0  0  0  0  0  0  0
    4.8035    4.9546    4.2393 H   0  0  0  0  0  0  0  0  0  0  0  0
    6.0313    3.6580    4.3454 H   0  0  0  0  0  0  0  0  0  0  0  0
    5.9005    6.9708    2.1992 H   0  0  0  0  0  0  0  0  0  0  0  0
    7.4676    6.2928    1.6566 H   0  0  0  0  0  0  0  0  0  0  0  0
    4.5689    2.2201    4.1200 H   0  0  0  0  0  0  0  0  0  0  0  0
    3.3127    0.1750    3.5755 H   0  0  0  0  0  0  0  0  0  0  0  0
  1  2  1  0
  1 25  1  6
  1 26  1  0
  1 27  1  0
  2  3  1  0
  2 28  1  1
  2 29  1  0
  3  4  1  0
  6  3  1  6
  4  5  1  0
  4 30  1  1
  4 31  1  0
  5 32  1  1
  5 33  1  0
  5 34  1  0
  6  7  2  0
  6  8  2  0
  6  9  1  0
  9 24  2  0
  9 10  1  0
 10 11  2  0
 10 35  1  0
 11 12  1  0
 11 36  1  0
 12 13  1  0
 12 23  2  0
 13 21  1  0
 13 14  1  0
 14 15  1  0
 14 37  1  1
 14 38  1  0
 15 16  1  6
 15 17  1  0
 15 20  1  0
 17 18  2  0
 17 19  1  0
 20 21  1  0
 20 39  1  1
 20 40  1  0
 21 22  2  0
 23 24  1  0
 23 41  1  0
 24 42  1  0
M  END
$$$$
