ZINC000028207815
     RDKit          3D

 62 63  0  0  1  0  0  0  0  0999 V2000
   -0.0187    1.5258    0.0104 C   0  0  1  0  0  0  0  0  0  0  0  0
    0.0021   -0.0041    0.0020 C   0  0  1  0  0  0  0  0  0  0  0  0
   -1.3723   -0.5112    0.0124 N   0  0  0  0  0  0  0  0  0  0  0  0
   -2.1099   -0.6542   -1.2453 C   0  0  1  0  0  0  0  0  0  0  0  0
   -1.7727   -2.0031   -1.8836 C   0  0  1  0  0  0  0  0  0  0  0  0
   -2.0922   -0.9227    1.4458 S   0  0  1  0  0  0  0  0  0  0  0  0
   -3.1196   -1.8512    1.1269 O   0  0  0  0  0  0  0  0  0  0  0  0
   -1.0393   -1.2108    2.3555 O   0  0  0  0  0  0  0  0  0  0  0  0
   -2.8978    0.5199    2.0580 C   0  0  0  0  0  0  0  0  0  0  0  0
   -2.2145    1.3947    2.8819 C   0  0  0  0  0  0  0  0  0  0  0  0
   -2.8438    2.5268    3.3629 C   0  0  0  0  0  0  0  0  0  0  0  0
   -4.1623    2.7852    3.0183 C   0  0  0  0  0  0  0  0  0  0  0  0
   -4.7833    3.8983    3.4897 O   0  0  0  0  0  0  0  0  0  0  0  0
   -4.0182    4.7590    4.3357 C   0  0  1  0  0  0  0  0  0  0  0  0
   -4.8656    5.9316    4.7577 C   0  0  0  0  0  0  0  0  0  0  0  0
   -6.0119    6.0214    4.3719 O   0  0  0  0  0  0  0  0  0  0  0  0
   -4.3495    6.8805    5.5637 N   0  0  0  0  0  0  0  0  0  0  0  0
   -5.1733    8.0205    5.9739 C   0  0  2  0  0  0  0  0  0  0  0  0
   -6.2056    7.6951    6.1026 H   0  0  0  0  0  0  0  0  0  0  0  0
   -5.1114    9.1074    4.8990 C   0  0  1  0  0  0  0  0  0  0  0  0
   -4.6465    8.5806    7.2966 C   0  0  1  0  0  0  0  0  0  0  0  0
   -4.8237    7.5354    8.3998 C   0  0  1  0  0  0  0  0  0  0  0  0
   -4.3048    8.0872    9.7026 C   0  0  0  0  0  0  0  0  0  0  0  0
   -2.9803    7.9028   10.0527 C   0  0  0  0  0  0  0  0  0  0  0  0
   -2.5043    8.4089   11.2478 C   0  0  0  0  0  0  0  0  0  0  0  0
   -3.3527    9.0998   12.0925 C   0  0  0  0  0  0  0  0  0  0  0  0
   -4.6770    9.2851   11.7420 C   0  0  0  0  0  0  0  0  0  0  0  0
   -5.1519    8.7827   10.5450 C   0  0  0  0  0  0  0  0  0  0  0  0
   -4.8460    1.9056    2.1912 C   0  0  0  0  0  0  0  0  0  0  0  0
   -6.2784    2.1836    1.8144 C   0  0  1  0  0  0  0  0  0  0  0  0
   -4.2107    0.7780    1.7088 C   0  0  0  0  0  0  0  0  0  0  0  0
    1.0039    1.9031    0.0027 H   0  0  0  0  0  0  0  0  0  0  0  0
   -0.5459    1.8868   -0.8726 H   0  0  0  0  0  0  0  0  0  0  0  0
   -0.5289    1.8773    0.9072 H   0  0  0  0  0  0  0  0  0  0  0  0
    0.5123   -0.3556   -0.8948 H   0  0  0  0  0  0  0  0  0  0  0  0
    0.5293   -0.3651    0.8851 H   0  0  0  0  0  0  0  0  0  0  0  0
   -3.1804   -0.6037   -1.0465 H   0  0  0  0  0  0  0  0  0  0  0  0
   -1.8283    0.1500   -1.9251 H   0  0  0  0  0  0  0  0  0  0  0  0
   -0.7022   -2.0536   -2.0825 H   0  0  0  0  0  0  0  0  0  0  0  0
   -2.0544   -2.8073   -1.2038 H   0  0  0  0  0  0  0  0  0  0  0  0
   -2.3215   -2.1096   -2.8194 H   0  0  0  0  0  0  0  0  0  0  0  0
   -1.1880    1.1928    3.1502 H   0  0  0  0  0  0  0  0  0  0  0  0
   -2.3096    3.2097    4.0068 H   0  0  0  0  0  0  0  0  0  0  0  0
   -3.6955    4.2075    5.2188 H   0  0  0  0  0  0  0  0  0  0  0  0
   -3.1442    5.1190    3.7928 H   0  0  0  0  0  0  0  0  0  0  0  0
   -3.4327    6.8087    5.8723 H   0  0  0  0  0  0  0  0  0  0  0  0
   -5.4867    8.7084    3.9567 H   0  0  0  0  0  0  0  0  0  0  0  0
   -5.7243    9.9556    5.2042 H   0  0  0  0  0  0  0  0  0  0  0  0
   -4.0791    9.4328    4.7703 H   0  0  0  0  0  0  0  0  0  0  0  0
   -3.5890    8.8236    7.1928 H   0  0  0  0  0  0  0  0  0  0  0  0
   -5.2024    9.4814    7.5568 H   0  0  0  0  0  0  0  0  0  0  0  0
   -5.8812    7.2924    8.5036 H   0  0  0  0  0  0  0  0  0  0  0  0
   -4.2678    6.6347    8.1396 H   0  0  0  0  0  0  0  0  0  0  0  0
   -2.3174    7.3629    9.3927 H   0  0  0  0  0  0  0  0  0  0  0  0
   -1.4697    8.2642   11.5216 H   0  0  0  0  0  0  0  0  0  0  0  0
   -2.9810    9.4947   13.0265 H   0  0  0  0  0  0  0  0  0  0  0  0
   -5.3399    9.8246   12.4022 H   0  0  0  0  0  0  0  0  0  0  0  0
   -6.1866    8.9274   10.2712 H   0  0  0  0  0  0  0  0  0  0  0  0
   -6.3051    2.7770    0.9005 H   0  0  0  0  0  0  0  0  0  0  0  0
   -6.8006    1.2409    1.6510 H   0  0  0  0  0  0  0  0  0  0  0  0
   -6.7655    2.7340    2.6194 H   0  0  0  0  0  0  0  0  0  0  0  0
   -4.7423    0.0932    1.0646 H   0  0  0  0  0  0  0  0  0  0  0  0
  1  2  1  0
  1 32  1  6
  1 33  1  0
  1 34  1  0
  2  3  1  0
  2 35  1  6
  2 36  1  0
  3  4  1  0
  6  3  1  6
  4  5  1  0
  4 37  1  1
  4 38  1  0
  5 39  1  6
  5 40  1  0
  5 41  1  0
  6  7  2  0
  6  8  2  0
  6  9  1  0
  9 31  2  0
  9 10  1  0
 10 11  2  0
 10 42  1  0
 11 12  1  0
 11 43  1  0
 12 13  1  0
 12 29  2  0
 13 14  1  0
 14 15  1  0
 14 44  1  1
 14 45  1  0
 15 16  2  0
 15 17  1  0
 17 18  1  0
 17 46  1  0
 18 19  1  1
 18 20  1  0
 18 21  1  0
 20 47  1  6
 20 48  1  0
 20 49  1  0
 21 22  1  0
 21 50  1  6
 21 51  1  0
 22 23  1  0
 22 52  1  1
 22 53  1  0
 23 28  2  0
 23 24  1  0
 24 25  2  0
 24 54  1  0
 25 26  1  0
 25 55  1  0
 26 27  2  0
 26 56  1  0
 27 28  1  0
 27 57  1  0
 28 58  1  0
 29 30  1  0
 29 31  1  0
 30 59  1  6
 30 60  1  0
 30 61  1  0
 31 62  1  0
M  END
$$$$
