ZINC000007975781
     RDKit          3D

 58 59  0  0  0  0  0  0  0  0999 V2000
    0.8588   -0.8595   -0.9058 C   0  0  1  0  0  0  0  0  0  0  0  0
   -0.0055    0.0163    0.0036 C   0  0  1  0  0  0  0  0  0  0  0  0
   -1.4174   -0.5103    0.0140 C   0  0  0  0  0  0  0  0  0  0  0  0
   -2.3313   -0.0528   -0.9175 C   0  0  0  0  0  0  0  0  0  0  0  0
   -3.6261   -0.5334   -0.9105 C   0  0  0  0  0  0  0  0  0  0  0  0
   -4.0097   -1.4775    0.0329 C   0  0  0  0  0  0  0  0  0  0  0  0
   -5.3205   -1.9668    0.0423 N   0  0  0  0  0  0  0  0  0  0  0  0
   -5.9972   -2.1032   -1.1152 C   0  0  0  0  0  0  0  0  0  0  0  0
   -5.4399   -1.8935   -2.1719 O   0  0  0  0  0  0  0  0  0  0  0  0
   -7.4464   -2.5164   -1.0967 C   0  0  1  0  0  0  0  0  0  0  0  0
   -7.9499   -2.5930   -2.4703 N   0  0  0  0  0  0  0  0  0  0  0  0
   -9.2795   -2.9597   -2.7088 C   0  0  0  0  0  0  0  0  0  0  0  0
  -10.1234   -3.2453   -1.6460 C   0  0  0  0  0  0  0  0  0  0  0  0
  -11.4365   -3.6068   -1.8842 C   0  0  0  0  0  0  0  0  0  0  0  0
  -12.5073   -3.9692   -0.5327 S   0  0  1  0  0  0  0  0  0  0  0  0
  -13.5352   -4.8042   -1.0479 O   0  0  0  0  0  0  0  0  0  0  0  0
  -11.6706   -4.3461    0.5523 O   0  0  0  0  0  0  0  0  0  0  0  0
  -13.2359   -2.5495   -0.0901 N   0  0  0  0  0  0  0  0  0  0  0  0
  -14.5046   -2.1541   -0.7066 C   0  0  1  0  0  0  0  0  0  0  0  0
  -15.6657   -2.6028    0.1831 C   0  0  1  0  0  0  0  0  0  0  0  0
  -12.6117   -1.6890    0.9179 C   0  0  1  0  0  0  0  0  0  0  0  0
  -11.7708   -0.6163    0.2227 C   0  0  1  0  0  0  0  0  0  0  0  0
  -11.9113   -3.6841   -3.1799 C   0  0  0  0  0  0  0  0  0  0  0  0
  -11.0753   -3.4011   -4.2450 C   0  0  0  0  0  0  0  0  0  0  0  0
   -9.7604   -3.0332   -4.0147 C   0  0  0  0  0  0  0  0  0  0  0  0
   -8.9373   -2.7547   -5.0610 O   0  0  0  0  0  0  0  0  0  0  0  0
   -9.4955   -2.8618   -6.3721 C   0  0  1  0  0  0  0  0  0  0  0  0
   -3.0893   -1.9353    0.9667 C   0  0  0  0  0  0  0  0  0  0  0  0
   -1.7948   -1.4543    0.9514 C   0  0  0  0  0  0  0  0  0  0  0  0
    1.8800   -0.4786   -0.9133 H   0  0  0  0  0  0  0  0  0  0  0  0
    0.8558   -1.8839   -0.5333 H   0  0  0  0  0  0  0  0  0  0  0  0
    0.4562   -0.8400   -1.9185 H   0  0  0  0  0  0  0  0  0  0  0  0
    0.3971   -0.0032    1.0163 H   0  0  0  0  0  0  0  0  0  0  0  0
   -0.0025    1.0407   -0.3689 H   0  0  0  0  0  0  0  0  0  0  0  0
   -2.0324    0.6814   -1.6509 H   0  0  0  0  0  0  0  0  0  0  0  0
   -4.3396   -0.1752   -1.6379 H   0  0  0  0  0  0  0  0  0  0  0  0
   -5.7422   -2.2079    0.8819 H   0  0  0  0  0  0  0  0  0  0  0  0
   -7.5399   -3.4924   -0.6205 H   0  0  0  0  0  0  0  0  0  0  0  0
   -8.0264   -1.7822   -0.5375 H   0  0  0  0  0  0  0  0  0  0  0  0
   -7.3619   -2.3897   -3.2145 H   0  0  0  0  0  0  0  0  0  0  0  0
   -9.7549   -3.1856   -0.6326 H   0  0  0  0  0  0  0  0  0  0  0  0
  -14.5314   -1.0703   -0.8197 H   0  0  0  0  0  0  0  0  0  0  0  0
  -14.5947   -2.6239   -1.6860 H   0  0  0  0  0  0  0  0  0  0  0  0
  -16.6097   -2.3086   -0.2756 H   0  0  0  0  0  0  0  0  0  0  0  0
  -15.6389   -3.6866    0.2962 H   0  0  0  0  0  0  0  0  0  0  0  0
  -15.5756   -2.1329    1.1625 H   0  0  0  0  0  0  0  0  0  0  0  0
  -13.3863   -1.2112    1.5178 H   0  0  0  0  0  0  0  0  0  0  0  0
  -11.9716   -2.2906    1.5633 H   0  0  0  0  0  0  0  0  0  0  0  0
  -12.4108   -0.0147   -0.4227 H   0  0  0  0  0  0  0  0  0  0  0  0
  -11.3064    0.0240    0.9727 H   0  0  0  0  0  0  0  0  0  0  0  0
  -10.9962   -1.0940   -0.3772 H   0  0  0  0  0  0  0  0  0  0  0  0
  -12.9378   -3.9665   -3.3613 H   0  0  0  0  0  0  0  0  0  0  0  0
  -11.4493   -3.4632   -5.2562 H   0  0  0  0  0  0  0  0  0  0  0  0
   -9.8435   -3.8815   -6.5366 H   0  0  0  0  0  0  0  0  0  0  0  0
  -10.3340   -2.1719   -6.4674 H   0  0  0  0  0  0  0  0  0  0  0  0
   -8.7349   -2.6136   -7.1123 H   0  0  0  0  0  0  0  0  0  0  0  0
   -3.3846   -2.6695    1.7017 H   0  0  0  0  0  0  0  0  0  0  0  0
   -1.0786   -1.8099    1.6774 H   0  0  0  0  0  0  0  0  0  0  0  0
  1  2  1  0
  1 30  1  6
  1 31  1  0
  1 32  1  0
  2  3  1  0
  2 33  1  1
  2 34  1  0
  3 29  2  0
  3  4  1  0
  4  5  2  0
  4 35  1  0
  5  6  1  0
  5 36  1  0
  6  7  1  0
  6 28  2  0
  7  8  1  0
  7 37  1  0
  8  9  2  0
  8 10  1  0
 10 11  1  0
 10 38  1  1
 10 39  1  0
 11 12  1  0
 11 40  1  0
 12 25  2  0
 12 13  1  0
 13 14  2  0
 13 41  1  0
 14 15  1  0
 14 23  1  0
 15 16  2  0
 15 17  2  0
 15 18  1  1
 18 19  1  0
 18 21  1  0
 19 20  1  0
 19 42  1  6
 19 43  1  0
 20 44  1  6
 20 45  1  0
 20 46  1  0
 21 22  1  0
 21 47  1  1
 21 48  1  0
 22 49  1  6
 22 50  1  0
 22 51  1  0
 23 24  2  0
 23 52  1  0
 24 25  1  0
 24 53  1  0
 25 26  1  0
 26 27  1  0
 27 54  1  6
 27 55  1  0
 27 56  1  0
 28 29  1  0
 28 57  1  0
 29 58  1  0
M  END
$$$$
