ZINC000000663902
     RDKit          3D

 50 52  0  0  0  0  0  0  0  0999 V2000
    0.0090    1.5300   -0.0199 C   0  0  1  0  0  0  0  0  0  0  0  0
    0.0220    0.0230   -0.0199 C   0  0  0  0  0  0  0  0  0  0  0  0
    0.0222   -0.6682   -1.2170 C   0  0  0  0  0  0  0  0  0  0  0  0
    0.0341   -2.0505   -1.2170 C   0  0  0  0  0  0  0  0  0  0  0  0
    0.0464   -2.7415   -0.0198 C   0  0  0  0  0  0  0  0  0  0  0  0
    0.0610   -4.5035   -0.0198 S   0  0  1  0  0  0  0  0  0  0  0  0
   -0.4733   -4.9092    1.2329 O   0  0  0  0  0  0  0  0  0  0  0  0
   -0.4869   -4.9093   -1.2665 O   0  0  0  0  0  0  0  0  0  0  0  0
    1.6468   -4.9805   -0.0284 N   0  0  0  0  0  0  0  0  0  0  0  0
    2.3585   -5.1904   -1.2965 C   0  0  1  0  0  0  0  0  0  0  0  0
    3.6446   -4.3581   -1.2837 C   0  0  1  0  0  0  0  0  0  0  0  0
    4.4622   -4.7090   -0.0385 C   0  0  1  0  0  0  0  0  0  0  0  0
    5.7442   -3.9169   -0.0401 C   0  0  0  0  0  0  0  0  0  0  0  0
    5.9807   -3.1477   -0.9475 O   0  0  0  0  0  0  0  0  0  0  0  0
    6.6280   -4.0633    0.9669 N   0  0  0  0  0  0  0  0  0  0  0  0
    7.8603   -3.4022    0.9179 C   0  0  0  0  0  0  0  0  0  0  0  0
    8.9973   -4.0105    1.4334 C   0  0  0  0  0  0  0  0  0  0  0  0
   10.2121   -3.3553    1.3836 C   0  0  0  0  0  0  0  0  0  0  0  0
   10.2969   -2.0947    0.8215 C   0  0  0  0  0  0  0  0  0  0  0  0
   11.6239   -1.3825    0.7692 C   0  0  1  0  0  0  0  0  0  0  0  0
   12.2788   -1.7036   -0.4246 F   0  0  0  0  0  0  0  0  0  0  0  0
   11.4141   -0.0006    0.8289 F   0  0  0  0  0  0  0  0  0  0  0  0
   12.4107   -1.7820    1.8548 F   0  0  0  0  0  0  0  0  0  0  0  0
    9.1666   -1.4865    0.3068 C   0  0  0  0  0  0  0  0  0  0  0  0
    7.9499   -2.1388    0.3485 C   0  0  0  0  0  0  0  0  0  0  0  0
    3.6547   -4.3695    1.2164 C   0  0  1  0  0  0  0  0  0  0  0  0
    2.3705   -5.1960    1.2320 C   0  0  1  0  0  0  0  0  0  0  0  0
    0.0476   -2.0503    1.1773 C   0  0  0  0  0  0  0  0  0  0  0  0
    0.0395   -0.6680    1.1772 C   0  0  0  0  0  0  0  0  0  0  0  0
    1.0334    1.9022   -0.0299 H   0  0  0  0  0  0  0  0  0  0  0  0
   -0.5165    1.8888   -0.9049 H   0  0  0  0  0  0  0  0  0  0  0  0
   -0.4994    1.8890    0.8749 H   0  0  0  0  0  0  0  0  0  0  0  0
    0.0126   -0.1283   -2.1523 H   0  0  0  0  0  0  0  0  0  0  0  0
    0.0335   -2.5905   -2.1523 H   0  0  0  0  0  0  0  0  0  0  0  0
    2.6075   -6.2460   -1.4054 H   0  0  0  0  0  0  0  0  0  0  0  0
    1.7269   -4.8742   -2.1267 H   0  0  0  0  0  0  0  0  0  0  0  0
    4.2293   -4.5783   -2.1768 H   0  0  0  0  0  0  0  0  0  0  0  0
    3.3917   -3.2980   -1.2661 H   0  0  0  0  0  0  0  0  0  0  0  0
    4.6934   -5.7742   -0.0442 H   0  0  0  0  0  0  0  0  0  0  0  0
    6.4099   -4.6270    1.7255 H   0  0  0  0  0  0  0  0  0  0  0  0
    8.9316   -4.9947    1.8732 H   0  0  0  0  0  0  0  0  0  0  0  0
   11.0967   -3.8278    1.7843 H   0  0  0  0  0  0  0  0  0  0  0  0
    9.2361   -0.5019   -0.1315 H   0  0  0  0  0  0  0  0  0  0  0  0
    7.0676   -1.6632   -0.0536 H   0  0  0  0  0  0  0  0  0  0  0  0
    4.2466   -4.5979    2.1027 H   0  0  0  0  0  0  0  0  0  0  0  0
    3.4017   -3.3093    1.2105 H   0  0  0  0  0  0  0  0  0  0  0  0
    1.7468   -4.8864    2.0706 H   0  0  0  0  0  0  0  0  0  0  0  0
    2.6176   -6.2533    1.3285 H   0  0  0  0  0  0  0  0  0  0  0  0
    0.0575   -2.5902    2.1126 H   0  0  0  0  0  0  0  0  0  0  0  0
    0.0405   -0.1279    2.1125 H   0  0  0  0  0  0  0  0  0  0  0  0
  1  2  1  0
  1 30  1  6
  1 31  1  0
  1 32  1  0
  2 29  2  0
  2  3  1  0
  3  4  2  0
  3 33  1  0
  4  5  1  0
  4 34  1  0
  5  6  1  0
  5 28  2  0
  6  7  2  0
  6  8  2  0
  6  9  1  6
  9 27  1  0
  9 10  1  0
 10 11  1  0
 10 35  1  6
 10 36  1  0
 11 12  1  0
 11 37  1  6
 11 38  1  0
 12 13  1  0
 12 26  1  0
 12 39  1  6
 13 14  2  0
 13 15  1  0
 15 16  1  0
 15 40  1  0
 16 25  2  0
 16 17  1  0
 17 18  2  0
 17 41  1  0
 18 19  1  0
 18 42  1  0
 19 20  1  0
 19 24  2  0
 20 21  1  6
 20 22  1  0
 20 23  1  0
 24 25  1  0
 24 43  1  0
 25 44  1  0
 26 27  1  0
 26 45  1  1
 26 46  1  0
 27 47  1  1
 27 48  1  0
 28 29  1  0
 28 49  1  0
 29 50  1  0
M  END
$$$$
