ZINC000158195877
     RDKit          3D

 41 42  0  0  1  0  0  0  0  0999 V2000
    0.2617    1.4963   -0.1503 C   0  0  1  0  0  0  0  0  0  0  0  0
    0.0022   -0.0038    0.0020 C   0  0  1  0  0  0  0  0  0  0  0  0
   -1.0561   -0.1710    0.2023 H   0  0  0  0  0  0  0  0  0  0  0  0
    0.3811   -0.6947   -1.2378 N   0  0  1  0  0  0  0  0  0  0  0  0
    1.3608   -0.5399   -1.4232 H   0  0  0  0  0  0  0  0  0  0  0  0
    0.2100   -1.6840   -1.1373 H   0  0  0  0  0  0  0  0  0  0  0  0
   -0.1673   -0.3347   -2.0045 H   0  0  0  0  0  0  0  0  0  0  0  0
    0.8213   -0.5415    1.1471 C   0  0  0  0  0  0  0  0  0  0  0  0
    1.8410   -1.1595    0.9256 O   0  0  0  0  0  0  0  0  0  0  0  0
    0.4205   -0.3355    2.4173 N   0  0  0  0  0  0  0  0  0  0  0  0
   -0.8691    0.3092    2.7002 C   0  0  1  0  0  0  0  0  0  0  0  0
   -1.6732   -0.5900    3.6445 C   0  0  1  0  0  0  0  0  0  0  0  0
   -0.8360   -0.8939    4.8891 C   0  0  1  0  0  0  0  0  0  0  0  0
   -1.6367   -1.7504    5.8359 C   0  0  0  0  0  0  0  0  0  0  0  0
   -2.0877   -2.9927    5.4308 C   0  0  0  0  0  0  0  0  0  0  0  0
   -2.8222   -3.7783    6.2993 C   0  0  0  0  0  0  0  0  0  0  0  0
   -3.1052   -3.3218    7.5730 C   0  0  0  0  0  0  0  0  0  0  0  0
   -3.9063   -4.1781    8.5196 C   0  0  1  0  0  0  0  0  0  0  0  0
   -3.0409   -4.9932    9.2571 F   0  0  0  0  0  0  0  0  0  0  0  0
   -4.6303   -3.3577    9.3914 F   0  0  0  0  0  0  0  0  0  0  0  0
   -4.7914   -4.9783    7.7892 F   0  0  0  0  0  0  0  0  0  0  0  0
   -2.6530   -2.0801    7.9786 C   0  0  0  0  0  0  0  0  0  0  0  0
   -1.9152   -1.2961    7.1114 C   0  0  0  0  0  0  0  0  0  0  0  0
    0.4369   -1.6387    4.4803 C   0  0  1  0  0  0  0  0  0  0  0  0
    1.2622   -0.7569    3.5455 C   0  0  1  0  0  0  0  0  0  0  0  0
    1.3283    1.6677   -0.2950 H   0  0  0  0  0  0  0  0  0  0  0  0
   -0.2874    1.8742   -1.0128 H   0  0  0  0  0  0  0  0  0  0  0  0
   -0.0712    2.0157    0.7483 H   0  0  0  0  0  0  0  0  0  0  0  0
   -0.6982    1.2760    3.1736 H   0  0  0  0  0  0  0  0  0  0  0  0
   -1.4202    0.4477    1.7701 H   0  0  0  0  0  0  0  0  0  0  0  0
   -2.5906   -0.0803    3.9388 H   0  0  0  0  0  0  0  0  0  0  0  0
   -1.9211   -1.5218    3.1364 H   0  0  0  0  0  0  0  0  0  0  0  0
   -0.5674    0.0399    5.3830 H   0  0  0  0  0  0  0  0  0  0  0  0
   -1.8666   -3.3493    4.4356 H   0  0  0  0  0  0  0  0  0  0  0  0
   -3.1752   -4.7486    5.9825 H   0  0  0  0  0  0  0  0  0  0  0  0
   -2.8737   -1.7236    8.9739 H   0  0  0  0  0  0  0  0  0  0  0  0
   -1.5619   -0.3259    7.4283 H   0  0  0  0  0  0  0  0  0  0  0  0
    1.0213   -1.8754    5.3694 H   0  0  0  0  0  0  0  0  0  0  0  0
    0.1691   -2.5607    3.9642 H   0  0  0  0  0  0  0  0  0  0  0  0
    2.1186   -1.3196    3.1739 H   0  0  0  0  0  0  0  0  0  0  0  0
    1.6078    0.1247    4.0852 H   0  0  0  0  0  0  0  0  0  0  0  0
  1  2  1  0
  1 26  1  6
  1 27  1  0
  1 28  1  0
  2  3  1  1
  2  4  1  0
  2  8  1  0
  4  5  1  6
  4  6  1  0
  4  7  1  0
  8  9  2  0
  8 10  1  0
 10 25  1  0
 10 11  1  0
 11 12  1  0
 11 29  1  1
 11 30  1  0
 12 13  1  0
 12 31  1  1
 12 32  1  0
 13 14  1  0
 13 24  1  0
 13 33  1  1
 14 23  2  0
 14 15  1  0
 15 16  2  0
 15 34  1  0
 16 17  1  0
 16 35  1  0
 17 18  1  0
 17 22  2  0
 18 19  1  1
 18 20  1  0
 18 21  1  0
 22 23  1  0
 22 36  1  0
 23 37  1  0
 24 25  1  0
 24 38  1  1
 24 39  1  0
 25 40  1  6
 25 41  1  0
M  CHG  1   4   1
M  END
$$$$
