ZINC000408626148
     RDKit          3D

 50 51  0  0  1  0  0  0  0  0999 V2000
   -0.0173    1.4248    0.0099 C   0  0  1  0  0  0  0  0  0  0  0  0
    0.0021   -0.0041    0.0020 O   0  0  0  0  0  0  0  0  0  0  0  0
    0.6518   -0.5703   -1.1379 C   0  0  1  0  0  0  0  0  0  0  0  0
    0.6131   -2.0967   -1.0411 C   0  0  2  0  0  0  0  0  0  0  0  0
    1.0288   -2.5292   -1.9512 H   0  0  0  0  0  0  0  0  0  0  0  0
   -0.8350   -2.5604   -0.8713 C   0  0  1  0  0  0  0  0  0  0  0  0
    1.4039   -2.5331    0.1124 N   0  0  0  0  0  0  0  0  0  0  0  0
    1.9385   -3.7701    0.1337 C   0  0  0  0  0  0  0  0  0  0  0  0
    1.7649   -4.5220   -0.8019 O   0  0  0  0  0  0  0  0  0  0  0  0
    2.7520   -4.2190    1.3202 C   0  0  1  0  0  0  0  0  0  0  0  0
    3.2178   -5.5908    1.1021 N   0  0  0  0  0  0  0  0  0  0  0  0
    4.4475   -5.8351    0.3443 C   0  0  1  0  0  0  0  0  0  0  0  0
    5.6348   -5.7323    1.2666 C   0  0  0  0  0  0  0  0  0  0  0  0
    6.2607   -4.5141    1.4545 C   0  0  0  0  0  0  0  0  0  0  0  0
    7.3498   -4.4198    2.3006 C   0  0  0  0  0  0  0  0  0  0  0  0
    7.8128   -5.5436    2.9591 C   0  0  0  0  0  0  0  0  0  0  0  0
    7.1863   -6.7616    2.7719 C   0  0  0  0  0  0  0  0  0  0  0  0
    6.0946   -6.8550    1.9292 C   0  0  0  0  0  0  0  0  0  0  0  0
    2.3542   -6.8653    1.7123 S   0  0  1  0  0  0  0  0  0  0  0  0
    3.2689   -7.9452    1.8402 O   0  0  0  0  0  0  0  0  0  0  0  0
    1.5989   -6.3533    2.8016 O   0  0  0  0  0  0  0  0  0  0  0  0
    1.1891   -7.3435    0.4800 C   0  0  0  0  0  0  0  0  0  0  0  0
   -0.0658   -6.7641    0.4541 C   0  0  0  0  0  0  0  0  0  0  0  0
   -0.9804   -7.1383   -0.5119 C   0  0  0  0  0  0  0  0  0  0  0  0
   -0.6394   -8.0936   -1.4543 C   0  0  0  0  0  0  0  0  0  0  0  0
   -1.5326   -8.4600   -2.3994 F   0  0  0  0  0  0  0  0  0  0  0  0
    0.6179   -8.6729   -1.4277 C   0  0  0  0  0  0  0  0  0  0  0  0
    1.5326   -8.2936   -0.4636 C   0  0  0  0  0  0  0  0  0  0  0  0
    1.0053    1.8021    0.0021 H   0  0  0  0  0  0  0  0  0  0  0  0
   -0.5445    1.7859   -0.8732 H   0  0  0  0  0  0  0  0  0  0  0  0
   -0.5275    1.7763    0.9067 H   0  0  0  0  0  0  0  0  0  0  0  0
    0.1385   -0.2506   -2.0447 H   0  0  0  0  0  0  0  0  0  0  0  0
    1.6883   -0.2344   -1.1694 H   0  0  0  0  0  0  0  0  0  0  0  0
   -1.4235   -2.2357   -1.7295 H   0  0  0  0  0  0  0  0  0  0  0  0
   -0.8626   -3.6479   -0.8024 H   0  0  0  0  0  0  0  0  0  0  0  0
   -1.2507   -2.1280    0.0388 H   0  0  0  0  0  0  0  0  0  0  0  0
    1.5428   -1.9317    0.8607 H   0  0  0  0  0  0  0  0  0  0  0  0
    3.6107   -3.5589    1.4427 H   0  0  0  0  0  0  0  0  0  0  0  0
    2.1352   -4.1832    2.2182 H   0  0  0  0  0  0  0  0  0  0  0  0
    4.4126   -6.8328   -0.0932 H   0  0  0  0  0  0  0  0  0  0  0  0
    4.5386   -5.0934   -0.4493 H   0  0  0  0  0  0  0  0  0  0  0  0
    5.8989   -3.6361    0.9400 H   0  0  0  0  0  0  0  0  0  0  0  0
    7.8392   -3.4682    2.4469 H   0  0  0  0  0  0  0  0  0  0  0  0
    8.6641   -5.4701    3.6196 H   0  0  0  0  0  0  0  0  0  0  0  0
    7.5483   -7.6396    3.2862 H   0  0  0  0  0  0  0  0  0  0  0  0
    5.6052   -7.8066    1.7829 H   0  0  0  0  0  0  0  0  0  0  0  0
   -0.3316   -6.0189    1.1893 H   0  0  0  0  0  0  0  0  0  0  0  0
   -1.9610   -6.6861   -0.5316 H   0  0  0  0  0  0  0  0  0  0  0  0
    0.8849   -9.4184   -2.1621 H   0  0  0  0  0  0  0  0  0  0  0  0
    2.5135   -8.7450   -0.4428 H   0  0  0  0  0  0  0  0  0  0  0  0
  1  2  1  0
  1 29  1  6
  1 30  1  0
  1 31  1  0
  2  3  1  0
  3  4  1  0
  3 32  1  6
  3 33  1  0
  4  5  1  6
  4  6  1  0
  4  7  1  0
  6 34  1  6
  6 35  1  0
  6 36  1  0
  7  8  1  0
  7 37  1  0
  8  9  2  0
  8 10  1  0
 10 11  1  0
 10 38  1  1
 10 39  1  0
 11 12  1  0
 19 11  1  6
 12 13  1  0
 12 40  1  6
 12 41  1  0
 13 18  2  0
 13 14  1  0
 14 15  2  0
 14 42  1  0
 15 16  1  0
 15 43  1  0
 16 17  2  0
 16 44  1  0
 17 18  1  0
 17 45  1  0
 18 46  1  0
 19 20  2  0
 19 21  2  0
 19 22  1  0
 22 28  2  0
 22 23  1  0
 23 24  2  0
 23 47  1  0
 24 25  1  0
 24 48  1  0
 25 26  1  0
 25 27  2  0
 27 28  1  0
 27 49  1  0
 28 50  1  0
M  END
$$$$
