ZINC000585145908
     RDKit          3D

 44 45  0  0  0  0  0  0  0  0999 V2000
   -1.9892    1.9358    0.6711 C   0  0  1  0  0  0  0  0  0  0  0  0
   -1.7946    0.5193    1.2156 C   0  0  1  0  0  0  0  0  0  0  0  0
   -1.4475   -0.3861    0.1121 N   0  0  0  0  0  0  0  0  0  0  0  0
   -0.1356   -0.0462   -0.4548 C   0  0  1  0  0  0  0  0  0  0  0  0
    0.0211   -0.7217   -1.8187 C   0  0  1  0  0  0  0  0  0  0  0  0
   -1.4848   -1.7879    0.5497 C   0  0  1  0  0  0  0  0  0  0  0  0
   -2.9176   -2.2410    0.6624 C   0  0  0  0  0  0  0  0  0  0  0  0
   -3.5508   -2.8821   -0.3218 C   0  0  0  0  0  0  0  0  0  0  0  0
   -5.1920   -3.2268    0.2180 S   0  0  0  0  0  0  0  0  0  0  0  0
   -4.8675   -2.4739    1.7183 C   0  0  0  0  0  0  0  0  0  0  0  0
   -5.7790   -2.3497    2.7604 N   0  0  0  0  0  0  0  0  0  0  0  0
   -7.0260   -2.8433    2.6274 C   0  0  0  0  0  0  0  0  0  0  0  0
   -7.3530   -3.3958    1.5984 O   0  0  0  0  0  0  0  0  0  0  0  0
   -8.0142   -2.7087    3.7572 C   0  0  1  0  0  0  0  0  0  0  0  0
   -9.3437   -3.3476    3.3508 C   0  0  1  0  0  0  0  0  0  0  0  0
  -10.3318   -3.2130    4.4806 C   0  0  0  0  0  0  0  0  0  0  0  0
  -10.4277   -4.1899    5.4598 C   0  0  0  0  0  0  0  0  0  0  0  0
  -11.3458   -4.0323    6.4807 C   0  0  0  0  0  0  0  0  0  0  0  0
  -12.1244   -2.9691    6.5295 N   0  0  0  0  0  0  0  0  0  0  0  0
  -12.0607   -2.0205    5.6158 C   0  0  0  0  0  0  0  0  0  0  0  0
  -11.1627   -2.1065    4.5688 C   0  0  0  0  0  0  0  0  0  0  0  0
   -3.6461   -2.0408    1.7447 N   0  0  0  0  0  0  0  0  0  0  0  0
   -2.2468    2.6076    1.4900 H   0  0  0  0  0  0  0  0  0  0  0  0
   -1.0662    2.2741    0.2003 H   0  0  0  0  0  0  0  0  0  0  0  0
   -2.7934    1.9349   -0.0647 H   0  0  0  0  0  0  0  0  0  0  0  0
   -0.9905    0.5202    1.9515 H   0  0  0  0  0  0  0  0  0  0  0  0
   -2.7176    0.1810    1.6865 H   0  0  0  0  0  0  0  0  0  0  0  0
   -0.0601    1.0346   -0.5738 H   0  0  0  0  0  0  0  0  0  0  0  0
    0.6508   -0.3938    0.2152 H   0  0  0  0  0  0  0  0  0  0  0  0
   -0.7550   -0.3612   -2.4939 H   0  0  0  0  0  0  0  0  0  0  0  0
    1.0013   -0.4835   -2.2317 H   0  0  0  0  0  0  0  0  0  0  0  0
   -0.0715   -1.8015   -1.7022 H   0  0  0  0  0  0  0  0  0  0  0  0
   -0.9632   -2.4096   -0.1780 H   0  0  0  0  0  0  0  0  0  0  0  0
   -0.9976   -1.8785    1.5205 H   0  0  0  0  0  0  0  0  0  0  0  0
   -3.1307   -3.1437   -1.2818 H   0  0  0  0  0  0  0  0  0  0  0  0
   -5.5175   -1.9078    3.5834 H   0  0  0  0  0  0  0  0  0  0  0  0
   -7.6248   -3.2119    4.6423 H   0  0  0  0  0  0  0  0  0  0  0  0
   -8.1711   -1.6531    3.9789 H   0  0  0  0  0  0  0  0  0  0  0  0
   -9.7330   -2.8444    2.4657 H   0  0  0  0  0  0  0  0  0  0  0  0
   -9.1868   -4.4032    3.1291 H   0  0  0  0  0  0  0  0  0  0  0  0
   -9.7933   -5.0632    5.4249 H   0  0  0  0  0  0  0  0  0  0  0  0
  -11.4267   -4.7888    7.2473 H   0  0  0  0  0  0  0  0  0  0  0  0
  -12.7150   -1.1643    5.6888 H   0  0  0  0  0  0  0  0  0  0  0  0
  -11.1150   -1.3261    3.8237 H   0  0  0  0  0  0  0  0  0  0  0  0
  1  2  1  0
  1 23  1  1
  1 24  1  0
  1 25  1  0
  2  3  1  0
  2 26  1  1
  2 27  1  0
  3  4  1  0
  3  6  1  0
  4  5  1  0
  4 28  1  6
  4 29  1  0
  5 30  1  6
  5 31  1  0
  5 32  1  0
  6  7  1  0
  6 33  1  6
  6 34  1  0
  7 22  1  0
  7  8  2  0
  8  9  1  0
  8 35  1  0
  9 10  1  0
 10 11  1  0
 10 22  2  0
 11 12  1  0
 11 36  1  0
 12 13  2  0
 12 14  1  0
 14 15  1  0
 14 37  1  1
 14 38  1  0
 15 16  1  0
 15 39  1  6
 15 40  1  0
 16 21  2  0
 16 17  1  0
 17 18  2  0
 17 41  1  0
 18 19  1  0
 18 42  1  0
 19 20  2  0
 20 21  1  0
 20 43  1  0
 21 44  1  0
M  END
$$$$
