ZINC000408703969
     RDKit          3D

 49 51  0  0  1  0  0  0  0  0999 V2000
    0.3781    1.0163   -0.3628 C   0  0  1  0  0  0  0  0  0  0  0  0
   -0.2117   -0.3753   -0.1250 C   0  0  1  0  0  0  0  0  0  0  0  0
   -1.2953   -0.3345   -0.2356 H   0  0  0  0  0  0  0  0  0  0  0  0
    0.3597   -1.3416   -1.1304 C   0  0  0  0  0  0  0  0  0  0  0  0
    1.3456   -1.9919   -0.8541 O   0  0  0  0  0  0  0  0  0  0  0  0
   -0.2247   -1.4832   -2.3366 N   0  0  0  0  0  0  0  0  0  0  0  0
    0.3565   -2.3120   -3.3026 C   0  0  0  0  0  0  0  0  0  0  0  0
    0.2970   -1.9632   -4.6455 C   0  0  0  0  0  0  0  0  0  0  0  0
    0.8717   -2.7834   -5.5966 C   0  0  0  0  0  0  0  0  0  0  0  0
    1.5053   -3.9511   -5.2130 C   0  0  0  0  0  0  0  0  0  0  0  0
    2.1307   -4.8439   -6.2535 C   0  0  1  0  0  0  0  0  0  0  0  0
    3.4618   -4.4635   -6.4552 F   0  0  0  0  0  0  0  0  0  0  0  0
    2.0865   -6.1720   -5.8158 F   0  0  0  0  0  0  0  0  0  0  0  0
    1.4245   -4.7252   -7.4553 F   0  0  0  0  0  0  0  0  0  0  0  0
    1.5666   -4.3010   -3.8766 C   0  0  0  0  0  0  0  0  0  0  0  0
    0.9989   -3.4822   -2.9200 C   0  0  0  0  0  0  0  0  0  0  0  0
    0.1245   -0.8234    1.2287 N   0  0  0  0  0  0  0  0  0  0  0  0
    1.4581   -0.8315    1.6519 C   0  0  0  0  0  0  0  0  0  0  0  0
    2.1348    0.3661    1.8390 C   0  0  0  0  0  0  0  0  0  0  0  0
    3.4527    0.3584    2.2549 C   0  0  0  0  0  0  0  0  0  0  0  0
    4.1030   -0.8440    2.4868 C   0  0  0  0  0  0  0  0  0  0  0  0
    5.4048   -0.8318    2.8882 O   0  0  0  0  0  0  0  0  0  0  0  0
    5.9111   -2.0393    3.4674 C   0  0  1  0  0  0  0  0  0  0  0  0
    5.4779   -3.2156    2.5821 C   0  0  1  0  0  0  0  0  0  0  0  0
    4.0472   -3.2350    2.5312 O   0  0  0  0  0  0  0  0  0  0  0  0
    3.4270   -2.0449    2.3039 C   0  0  0  0  0  0  0  0  0  0  0  0
    2.1038   -2.0369    1.8905 C   0  0  0  0  0  0  0  0  0  0  0  0
   -1.0739   -1.3202    2.2579 S   0  0  1  0  0  0  0  0  0  0  0  0
   -1.3409   -3.0636    1.8337 C   0  0  1  0  0  0  0  0  0  0  0  0
   -0.4957   -1.2045    3.5508 O   0  0  0  0  0  0  0  0  0  0  0  0
   -2.2010   -0.5385    1.8868 O   0  0  0  0  0  0  0  0  0  0  0  0
    1.4659    0.9513   -0.3828 H   0  0  0  0  0  0  0  0  0  0  0  0
    0.0197    1.4047   -1.3161 H   0  0  0  0  0  0  0  0  0  0  0  0
    0.0687    1.6842    0.4411 H   0  0  0  0  0  0  0  0  0  0  0  0
   -1.0482   -1.0106   -2.5350 H   0  0  0  0  0  0  0  0  0  0  0  0
   -0.1983   -1.0516   -4.9458 H   0  0  0  0  0  0  0  0  0  0  0  0
    0.8257   -2.5126   -6.6411 H   0  0  0  0  0  0  0  0  0  0  0  0
    2.0622   -5.2136   -3.5801 H   0  0  0  0  0  0  0  0  0  0  0  0
    1.0471   -3.7561   -1.8765 H   0  0  0  0  0  0  0  0  0  0  0  0
    1.6312    1.3044    1.6590 H   0  0  0  0  0  0  0  0  0  0  0  0
    3.9774    1.2912    2.3994 H   0  0  0  0  0  0  0  0  0  0  0  0
    6.9992   -1.9961    3.5147 H   0  0  0  0  0  0  0  0  0  0  0  0
    5.5037   -2.1647    4.4706 H   0  0  0  0  0  0  0  0  0  0  0  0
    5.8798   -3.0869    1.5771 H   0  0  0  0  0  0  0  0  0  0  0  0
    5.8433   -4.1502    3.0079 H   0  0  0  0  0  0  0  0  0  0  0  0
    1.5765   -2.9689    1.7498 H   0  0  0  0  0  0  0  0  0  0  0  0
   -0.3864   -3.5900    1.8427 H   0  0  0  0  0  0  0  0  0  0  0  0
   -2.0124   -3.5164    2.5633 H   0  0  0  0  0  0  0  0  0  0  0  0
   -1.7842   -3.1321    0.8403 H   0  0  0  0  0  0  0  0  0  0  0  0
  1  2  1  0
  1 32  1  6
  1 33  1  0
  1 34  1  0
  2  3  1  1
  2  4  1  0
  2 17  1  0
  4  5  2  0
  4  6  1  0
  6  7  1  0
  6 35  1  0
  7 16  2  0
  7  8  1  0
  8  9  2  0
  8 36  1  0
  9 10  1  0
  9 37  1  0
 10 11  1  0
 10 15  2  0
 11 12  1  6
 11 13  1  0
 11 14  1  0
 15 16  1  0
 15 38  1  0
 16 39  1  0
 17 18  1  0
 28 17  1  6
 18 27  2  0
 18 19  1  0
 19 20  2  0
 19 40  1  0
 20 21  1  0
 20 41  1  0
 21 26  2  0
 21 22  1  0
 22 23  1  0
 23 24  1  0
 23 42  1  1
 23 43  1  0
 24 25  1  0
 24 44  1  6
 24 45  1  0
 25 26  1  0
 26 27  1  0
 27 46  1  0
 28 29  1  0
 28 30  2  0
 28 31  2  0
 29 47  1  6
 29 48  1  0
 29 49  1  0
M  END
$$$$
