ZINC000000529040
     RDKit          3D

 47 48  0  0  1  0  0  0  0  0999 V2000
   -0.0187    1.5258    0.0104 C   0  0  1  0  0  0  0  0  0  0  0  0
    0.0021   -0.0041    0.0020 C   0  0  1  0  0  0  0  0  0  0  0  0
   -1.3723   -0.5112    0.0124 N   0  0  0  0  0  0  0  0  0  0  0  0
   -2.1099   -0.6542   -1.2453 C   0  0  1  0  0  0  0  0  0  0  0  0
   -1.7778   -1.9829   -1.8740 C   0  0  0  0  0  0  0  0  0  0  0  0
   -1.0015   -2.7362   -1.3256 O   0  0  0  0  0  0  0  0  0  0  0  0
   -2.3435   -2.3340   -3.0459 N   0  0  0  0  0  0  0  0  0  0  0  0
   -2.0207   -3.6257   -3.6571 C   0  0  1  0  0  0  0  0  0  0  0  0
   -2.7910   -3.7751   -4.9706 C   0  0  2  0  0  0  0  0  0  0  0  0
   -3.8560   -3.6248   -4.7937 H   0  0  0  0  0  0  0  0  0  0  0  0
   -2.5514   -5.1812   -5.5612 C   0  0  1  0  0  0  0  0  0  0  0  0
   -2.4381   -4.8851   -7.0816 C   0  0  1  0  0  0  0  0  0  0  0  0
   -1.7541   -3.4950   -7.0604 C   0  0  1  0  0  0  0  0  0  0  0  0
   -2.3167   -2.8167   -5.9237 O   0  0  0  0  0  0  0  0  0  0  0  0
   -2.0922   -0.9227    1.4458 S   0  0  1  0  0  0  0  0  0  0  0  0
   -3.1196   -1.8512    1.1269 O   0  0  0  0  0  0  0  0  0  0  0  0
   -1.0393   -1.2108    2.3555 O   0  0  0  0  0  0  0  0  0  0  0  0
   -2.8978    0.5199    2.0580 C   0  0  0  0  0  0  0  0  0  0  0  0
   -2.2156    1.3954    2.8820 C   0  0  0  0  0  0  0  0  0  0  0  0
   -2.8476    2.5271    3.3622 C   0  0  0  0  0  0  0  0  0  0  0  0
   -4.1616    2.7836    3.0181 C   0  0  0  0  0  0  0  0  0  0  0  0
   -4.8508    4.0171    3.5421 C   0  0  1  0  0  0  0  0  0  0  0  0
   -4.8434    1.9088    2.1930 C   0  0  0  0  0  0  0  0  0  0  0  0
   -4.2102    0.7790    1.7096 C   0  0  0  0  0  0  0  0  0  0  0  0
    1.0039    1.9031    0.0027 H   0  0  0  0  0  0  0  0  0  0  0  0
   -0.5459    1.8868   -0.8726 H   0  0  0  0  0  0  0  0  0  0  0  0
   -0.5289    1.8773    0.9072 H   0  0  0  0  0  0  0  0  0  0  0  0
    0.5123   -0.3556   -0.8948 H   0  0  0  0  0  0  0  0  0  0  0  0
    0.5293   -0.3651    0.8851 H   0  0  0  0  0  0  0  0  0  0  0  0
   -3.1804   -0.6037   -1.0465 H   0  0  0  0  0  0  0  0  0  0  0  0
   -1.8283    0.1500   -1.9251 H   0  0  0  0  0  0  0  0  0  0  0  0
   -2.9644   -1.7315   -3.4845 H   0  0  0  0  0  0  0  0  0  0  0  0
   -0.9502   -3.6762   -3.8559 H   0  0  0  0  0  0  0  0  0  0  0  0
   -2.3023   -4.4299   -2.9773 H   0  0  0  0  0  0  0  0  0  0  0  0
   -1.6248   -5.6096   -5.1793 H   0  0  0  0  0  0  0  0  0  0  0  0
   -3.3971   -5.8374   -5.3558 H   0  0  0  0  0  0  0  0  0  0  0  0
   -1.8108   -5.6241   -7.5800 H   0  0  0  0  0  0  0  0  0  0  0  0
   -3.4229   -4.8314   -7.5458 H   0  0  0  0  0  0  0  0  0  0  0  0
   -0.6763   -3.6055   -6.9406 H   0  0  0  0  0  0  0  0  0  0  0  0
   -1.9797   -2.9483   -7.9760 H   0  0  0  0  0  0  0  0  0  0  0  0
   -1.1890    1.1950    3.1509 H   0  0  0  0  0  0  0  0  0  0  0  0
   -2.3149    3.2108    4.0066 H   0  0  0  0  0  0  0  0  0  0  0  0
   -4.6986    4.8418    2.8457 H   0  0  0  0  0  0  0  0  0  0  0  0
   -5.9180    3.8210    3.6452 H   0  0  0  0  0  0  0  0  0  0  0  0
   -4.4342    4.2808    4.5142 H   0  0  0  0  0  0  0  0  0  0  0  0
   -5.8699    2.1094    1.9238 H   0  0  0  0  0  0  0  0  0  0  0  0
   -4.7428    0.0956    1.0650 H   0  0  0  0  0  0  0  0  0  0  0  0
  1  2  1  0
  1 25  1  6
  1 26  1  0
  1 27  1  0
  2  3  1  0
  2 28  1  6
  2 29  1  0
  3  4  1  0
 15  3  1  6
  4  5  1  0
  4 30  1  1
  4 31  1  0
  5  6  2  0
  5  7  1  0
  7  8  1  0
  7 32  1  0
  8  9  1  0
  8 33  1  6
  8 34  1  0
  9 10  1  1
  9 14  1  0
  9 11  1  0
 11 12  1  0
 11 35  1  1
 11 36  1  0
 12 13  1  0
 12 37  1  6
 12 38  1  0
 13 14  1  0
 13 39  1  1
 13 40  1  0
 15 16  2  0
 15 17  2  0
 15 18  1  0
 18 24  2  0
 18 19  1  0
 19 20  2  0
 19 41  1  0
 20 21  1  0
 20 42  1  0
 21 22  1  0
 21 23  2  0
 22 43  1  6
 22 44  1  0
 22 45  1  0
 23 24  1  0
 23 46  1  0
 24 47  1  0
M  END
$$$$
