ZINC000155264304
     RDKit          3D

 49 51  0  0  1  0  0  0  0  0999 V2000
    0.0021   -0.0041    0.0020 O   0  0  0  0  0  0  0  0  0  0  0  0
   -0.0172    1.4168    0.0098 S   0  0  1  0  0  0  0  0  0  0  0  0
    1.1617    2.2101    0.0028 O   0  0  0  0  0  0  0  0  0  0  0  0
   -0.9002    1.8797   -1.3124 N   0  0  0  0  0  0  0  0  0  0  0  0
   -1.9187    1.0611   -1.9949 C   0  0  1  0  0  0  0  0  0  0  0  0
   -2.8444    2.0850   -2.6982 C   0  0  2  0  0  0  0  0  0  0  0  0
   -3.5702    2.5001   -1.9990 H   0  0  0  0  0  0  0  0  0  0  0  0
   -3.4998    1.4950   -3.8226 O   0  0  0  0  0  0  0  0  0  0  0  0
   -1.8269    3.1655   -3.1505 C   0  0  1  0  0  0  0  0  0  0  0  0
   -0.8028    3.1776   -1.9962 C   0  0  2  0  0  0  0  0  0  0  0  0
   -1.0354    3.9859   -1.3028 H   0  0  0  0  0  0  0  0  0  0  0  0
    0.5881    3.3595   -2.5469 C   0  0  0  0  0  0  0  0  0  0  0  0
    1.2517    2.2886   -3.1159 C   0  0  0  0  0  0  0  0  0  0  0  0
    2.5276    2.4554   -3.6210 C   0  0  0  0  0  0  0  0  0  0  0  0
    3.1397    3.6932   -3.5576 C   0  0  0  0  0  0  0  0  0  0  0  0
    4.5309    3.8749   -4.1078 C   0  0  1  0  0  0  0  0  0  0  0  0
    4.4549    4.2419   -5.4557 F   0  0  0  0  0  0  0  0  0  0  0  0
    5.1898    4.8772   -3.3880 F   0  0  0  0  0  0  0  0  0  0  0  0
    5.2392    2.6742   -3.9906 F   0  0  0  0  0  0  0  0  0  0  0  0
    2.4756    4.7644   -2.9898 C   0  0  0  0  0  0  0  0  0  0  0  0
    1.1983    4.5985   -2.4881 C   0  0  0  0  0  0  0  0  0  0  0  0
   -0.8748    1.8654    1.3536 N   0  0  0  0  0  0  0  0  0  0  0  0
   -0.6492    3.1794    1.9129 C   0  0  1  0  0  0  0  0  0  0  0  0
    0.4959    3.1116    2.9533 C   0  0  1  0  0  0  0  0  0  0  0  0
    0.0469    2.4036    4.1619 C   0  0  1  0  0  0  0  0  0  0  0  0
   -0.3390    0.9459    3.9295 C   0  0  1  0  0  0  0  0  0  0  0  0
   -1.7740    0.8758    3.4686 C   0  0  1  0  0  0  0  0  0  0  0  0
   -1.8422    0.9096    1.9273 C   0  0  1  0  0  0  0  0  0  0  0  0
   -1.4495    0.4067   -2.7296 H   0  0  0  0  0  0  0  0  0  0  0  0
   -2.4831    0.4753   -1.2694 H   0  0  0  0  0  0  0  0  0  0  0  0
   -4.0725    0.7491   -3.5973 H   0  0  0  0  0  0  0  0  0  0  0  0
   -1.3521    2.8793   -4.0890 H   0  0  0  0  0  0  0  0  0  0  0  0
   -2.3118    4.1372   -3.2430 H   0  0  0  0  0  0  0  0  0  0  0  0
    0.7734    1.3215   -3.1654 H   0  0  0  0  0  0  0  0  0  0  0  0
    3.0463    1.6185   -4.0649 H   0  0  0  0  0  0  0  0  0  0  0  0
    2.9538    5.7315   -2.9405 H   0  0  0  0  0  0  0  0  0  0  0  0
    0.6794    5.4354   -2.0445 H   0  0  0  0  0  0  0  0  0  0  0  0
   -0.3752    3.8709    1.1161 H   0  0  0  0  0  0  0  0  0  0  0  0
   -1.5605    3.5285    2.3985 H   0  0  0  0  0  0  0  0  0  0  0  0
    1.3457    2.5835    2.5206 H   0  0  0  0  0  0  0  0  0  0  0  0
    0.8012    4.1233    3.2203 H   0  0  0  0  0  0  0  0  0  0  0  0
    0.8484    2.4360    4.8999 H   0  0  0  0  0  0  0  0  0  0  0  0
   -0.8163    2.9292    4.5703 H   0  0  0  0  0  0  0  0  0  0  0  0
    0.3094    0.5153    3.1665 H   0  0  0  0  0  0  0  0  0  0  0  0
   -0.2278    0.3877    4.8590 H   0  0  0  0  0  0  0  0  0  0  0  0
   -2.2250   -0.0483    3.8302 H   0  0  0  0  0  0  0  0  0  0  0  0
   -2.3248    1.7260    3.8708 H   0  0  0  0  0  0  0  0  0  0  0  0
   -2.8503    1.1918    1.6237 H   0  0  0  0  0  0  0  0  0  0  0  0
   -1.6239   -0.0862    1.5414 H   0  0  0  0  0  0  0  0  0  0  0  0
  1  2  2  0
  2  3  2  0
  2  4  1  6
  2 22  1  0
  4 10  1  0
  4  5  1  0
  5  6  1  0
  5 29  1  6
  5 30  1  0
  6  7  1  1
  6  8  1  0
  6  9  1  0
  8 31  1  0
  9 10  1  0
  9 32  1  6
  9 33  1  0
 10 11  1  1
 10 12  1  0
 12 21  2  0
 12 13  1  0
 13 14  2  0
 13 34  1  0
 14 15  1  0
 14 35  1  0
 15 16  1  0
 15 20  2  0
 16 17  1  6
 16 18  1  0
 16 19  1  0
 20 21  1  0
 20 36  1  0
 21 37  1  0
 22 28  1  0
 22 23  1  0
 23 24  1  0
 23 38  1  6
 23 39  1  0
 24 25  1  0
 24 40  1  6
 24 41  1  0
 25 26  1  0
 25 42  1  1
 25 43  1  0
 26 27  1  0
 26 44  1  6
 26 45  1  0
 27 28  1  0
 27 46  1  1
 27 47  1  0
 28 48  1  1
 28 49  1  0
M  END
$$$$
