ZINC000096479550
     RDKit          3D

 43 44  0  0  1  0  0  0  0  0999 V2000
   -0.0187    1.5258    0.0104 C   0  0  1  0  0  0  0  0  0  0  0  0
    0.0021   -0.0041    0.0020 C   0  0  2  0  0  0  0  0  0  0  0  0
    0.5293   -0.3651    0.8851 H   0  0  0  0  0  0  0  0  0  0  0  0
    0.7182   -0.4975   -1.2568 C   0  0  1  0  0  0  0  0  0  0  0  0
    2.1652   -0.0794   -1.2080 C   0  0  0  0  0  0  0  0  0  0  0  0
    2.5826    0.5511   -0.2598 O   0  0  0  0  0  0  0  0  0  0  0  0
    2.9955   -0.4062   -2.2181 N   0  0  0  0  0  0  0  0  0  0  0  0
    2.5032   -1.1644   -3.3763 C   0  0  1  0  0  0  0  0  0  0  0  0
    3.3906   -2.3978   -3.5716 C   0  0  1  0  0  0  0  0  0  0  0  0
    4.8519   -1.9573   -3.6838 C   0  0  1  0  0  0  0  0  0  0  0  0
    5.2761   -1.2569   -2.3909 C   0  0  1  0  0  0  0  0  0  0  0  0
    5.1444   -1.9365   -1.5489 H   0  0  0  0  0  0  0  0  0  0  0  0
    6.7246   -0.8529   -2.4895 C   0  0  0  0  0  0  0  0  0  0  0  0
    7.3594   -1.1019   -3.5002 O   0  0  0  0  0  0  0  0  0  0  0  0
    7.2616   -0.2771   -1.5586 O   0  0  0  0  0  0  0  0  0  0  0  0
    4.4088   -0.0057   -2.1848 C   0  0  1  0  0  0  0  0  0  0  0  0
   -1.4117   -0.5257    0.0127 C   0  0  0  0  0  0  0  0  0  0  0  0
   -2.2755   -0.2024   -1.0170 C   0  0  0  0  0  0  0  0  0  0  0  0
   -3.5724   -0.6809   -1.0072 C   0  0  0  0  0  0  0  0  0  0  0  0
   -4.0053   -1.4830    0.0321 C   0  0  0  0  0  0  0  0  0  0  0  0
   -5.4193   -2.0042    0.0430 C   0  0  1  0  0  0  0  0  0  0  0  0
   -5.4672   -3.2364   -0.6178 F   0  0  0  0  0  0  0  0  0  0  0  0
   -5.8459   -2.1673    1.3654 F   0  0  0  0  0  0  0  0  0  0  0  0
   -6.2573   -1.0928   -0.6083 F   0  0  0  0  0  0  0  0  0  0  0  0
   -3.1411   -1.8074    1.0611 C   0  0  0  0  0  0  0  0  0  0  0  0
   -1.8431   -1.3321    1.0493 C   0  0  0  0  0  0  0  0  0  0  0  0
    1.0039    1.9031    0.0027 H   0  0  0  0  0  0  0  0  0  0  0  0
   -0.5459    1.8868   -0.8726 H   0  0  0  0  0  0  0  0  0  0  0  0
   -0.5289    1.8773    0.9072 H   0  0  0  0  0  0  0  0  0  0  0  0
    0.6556   -1.5845   -1.3079 H   0  0  0  0  0  0  0  0  0  0  0  0
    0.2444   -0.0644   -2.1377 H   0  0  0  0  0  0  0  0  0  0  0  0
    1.4750   -1.4787   -3.1971 H   0  0  0  0  0  0  0  0  0  0  0  0
    2.5460   -0.5386   -4.2677 H   0  0  0  0  0  0  0  0  0  0  0  0
    3.2767   -3.0666   -2.7185 H   0  0  0  0  0  0  0  0  0  0  0  0
    3.0961   -2.9171   -4.4836 H   0  0  0  0  0  0  0  0  0  0  0  0
    5.4830   -2.8308   -3.8475 H   0  0  0  0  0  0  0  0  0  0  0  0
    4.9604   -1.2690   -4.5221 H   0  0  0  0  0  0  0  0  0  0  0  0
    4.6093    0.7128   -2.9796 H   0  0  0  0  0  0  0  0  0  0  0  0
    4.6377    0.4424   -1.2179 H   0  0  0  0  0  0  0  0  0  0  0  0
   -1.9373    0.4243   -1.8289 H   0  0  0  0  0  0  0  0  0  0  0  0
   -4.2475   -0.4277   -1.8113 H   0  0  0  0  0  0  0  0  0  0  0  0
   -3.4793   -2.4344    1.8729 H   0  0  0  0  0  0  0  0  0  0  0  0
   -1.1679   -1.5855    1.8533 H   0  0  0  0  0  0  0  0  0  0  0  0
  1  2  1  0
  1 27  1  6
  1 28  1  0
  1 29  1  0
  2  3  1  1
  2  4  1  0
  2 17  1  0
  4  5  1  0
  4 30  1  6
  4 31  1  0
  5  6  2  0
  5  7  1  0
  7 16  1  0
  7  8  1  0
  8  9  1  0
  8 32  1  1
  8 33  1  0
  9 10  1  0
  9 34  1  1
  9 35  1  0
 10 11  1  0
 10 36  1  6
 10 37  1  0
 11 12  1  1
 11 13  1  0
 11 16  1  0
 13 14  2  0
 13 15  1  0
 16 38  1  6
 16 39  1  0
 17 26  2  0
 17 18  1  0
 18 19  2  0
 18 40  1  0
 19 20  1  0
 19 41  1  0
 20 21  1  0
 20 25  2  0
 21 22  1  6
 21 23  1  0
 21 24  1  0
 25 26  1  0
 25 42  1  0
 26 43  1  0
M  END
$$$$
