ZINC000408621694
     RDKit          3D

 56 57  0  0  1  0  0  0  0  0999 V2000
   -3.6449  -12.3390   -5.1032 C   0  0  1  0  0  0  0  0  0  0  0  0
   -3.7341  -11.1121   -4.1935 C   0  0  1  0  0  0  0  0  0  0  0  0
   -2.4538  -10.8557   -3.6127 O   0  0  0  0  0  0  0  0  0  0  0  0
   -2.3595   -9.7919   -2.7722 C   0  0  0  0  0  0  0  0  0  0  0  0
   -3.4774   -9.0143   -2.5074 C   0  0  0  0  0  0  0  0  0  0  0  0
   -3.3790   -7.9338   -1.6524 C   0  0  0  0  0  0  0  0  0  0  0  0
   -2.1675   -7.6267   -1.0610 C   0  0  0  0  0  0  0  0  0  0  0  0
   -2.0451   -6.2475    0.0286 S   0  0  1  0  0  0  0  0  0  0  0  0
   -0.7088   -5.7747   -0.0710 O   0  0  0  0  0  0  0  0  0  0  0  0
   -3.1796   -5.4312   -0.2283 O   0  0  0  0  0  0  0  0  0  0  0  0
   -2.2234   -6.8239    1.5708 N   0  0  0  0  0  0  0  0  0  0  0  0
   -3.5636   -7.0217    2.1285 C   0  0  1  0  0  0  0  0  0  0  0  0
   -3.9842   -8.4550    1.9291 C   0  0  0  0  0  0  0  0  0  0  0  0
   -3.2379   -9.2345    1.3756 O   0  0  0  0  0  0  0  0  0  0  0  0
   -5.1896   -8.8706    2.3658 N   0  0  0  0  0  0  0  0  0  0  0  0
   -5.5984  -10.2639    2.1719 C   0  0  2  0  0  0  0  0  0  0  0  0
   -4.7286  -10.9141    2.2649 H   0  0  0  0  0  0  0  0  0  0  0  0
   -6.2103  -10.4268    0.7790 C   0  0  1  0  0  0  0  0  0  0  0  0
   -6.6346  -10.6436    3.2317 C   0  0  1  0  0  0  0  0  0  0  0  0
   -5.9865  -10.6010    4.6169 C   0  0  1  0  0  0  0  0  0  0  0  0
   -1.0410   -7.1360    2.3774 C   0  0  1  0  0  0  0  0  0  0  0  0
   -0.7100   -5.9599    3.2597 C   0  0  0  0  0  0  0  0  0  0  0  0
    0.2267   -5.0299    2.8491 C   0  0  0  0  0  0  0  0  0  0  0  0
    0.5303   -3.9510    3.6583 C   0  0  0  0  0  0  0  0  0  0  0  0
   -0.1031   -3.8020    4.8779 C   0  0  0  0  0  0  0  0  0  0  0  0
   -1.0405   -4.7315    5.2881 C   0  0  0  0  0  0  0  0  0  0  0  0
   -1.3472   -5.8080    4.4769 C   0  0  0  0  0  0  0  0  0  0  0  0
   -1.0519   -8.4004   -1.3230 C   0  0  0  0  0  0  0  0  0  0  0  0
   -1.1463   -9.4851   -2.1732 C   0  0  0  0  0  0  0  0  0  0  0  0
   -4.6215  -12.5345   -5.5462 H   0  0  0  0  0  0  0  0  0  0  0  0
   -2.9180  -12.1530   -5.8938 H   0  0  0  0  0  0  0  0  0  0  0  0
   -3.3319  -13.2035   -4.5177 H   0  0  0  0  0  0  0  0  0  0  0  0
   -4.0472  -10.2476   -4.7789 H   0  0  0  0  0  0  0  0  0  0  0  0
   -4.4610  -11.2980   -3.4029 H   0  0  0  0  0  0  0  0  0  0  0  0
   -4.4238   -9.2533   -2.9696 H   0  0  0  0  0  0  0  0  0  0  0  0
   -4.2490   -7.3281   -1.4459 H   0  0  0  0  0  0  0  0  0  0  0  0
   -3.5514   -6.7915    3.1939 H   0  0  0  0  0  0  0  0  0  0  0  0
   -4.2687   -6.3623    1.6224 H   0  0  0  0  0  0  0  0  0  0  0  0
   -5.7864   -8.2471    2.8085 H   0  0  0  0  0  0  0  0  0  0  0  0
   -7.0802   -9.7766    0.6860 H   0  0  0  0  0  0  0  0  0  0  0  0
   -5.4721  -10.1563    0.0240 H   0  0  0  0  0  0  0  0  0  0  0  0
   -6.5145  -11.4635    0.6348 H   0  0  0  0  0  0  0  0  0  0  0  0
   -7.4649   -9.9382    3.1971 H   0  0  0  0  0  0  0  0  0  0  0  0
   -7.0043  -11.6498    3.0343 H   0  0  0  0  0  0  0  0  0  0  0  0
   -6.7247  -10.8714    5.3719 H   0  0  0  0  0  0  0  0  0  0  0  0
   -5.1562  -11.3064    4.6515 H   0  0  0  0  0  0  0  0  0  0  0  0
   -5.6168   -9.5947    4.8143 H   0  0  0  0  0  0  0  0  0  0  0  0
   -1.2441   -8.0093    2.9973 H   0  0  0  0  0  0  0  0  0  0  0  0
   -0.1975   -7.3455    1.7197 H   0  0  0  0  0  0  0  0  0  0  0  0
    0.7216   -5.1463    1.8962 H   0  0  0  0  0  0  0  0  0  0  0  0
    1.2627   -3.2248    3.3378 H   0  0  0  0  0  0  0  0  0  0  0  0
    0.1346   -2.9595    5.5105 H   0  0  0  0  0  0  0  0  0  0  0  0
   -1.5351   -4.6152    6.2411 H   0  0  0  0  0  0  0  0  0  0  0  0
   -2.0796   -6.5342    4.7974 H   0  0  0  0  0  0  0  0  0  0  0  0
   -0.1068   -8.1587   -0.8596 H   0  0  0  0  0  0  0  0  0  0  0  0
   -0.2747  -10.0892   -2.3775 H   0  0  0  0  0  0  0  0  0  0  0  0
  1  2  1  0
  1 30  1  6
  1 31  1  0
  1 32  1  0
  2  3  1  0
  2 33  1  6
  2 34  1  0
  3  4  1  0
  4 29  2  0
  4  5  1  0
  5  6  2  0
  5 35  1  0
  6  7  1  0
  6 36  1  0
  7  8  1  0
  7 28  2  0
  8  9  2  0
  8 10  2  0
  8 11  1  1
 11 12  1  0
 11 21  1  0
 12 13  1  0
 12 37  1  1
 12 38  1  0
 13 14  2  0
 13 15  1  0
 15 16  1  0
 15 39  1  0
 16 17  1  6
 16 18  1  0
 16 19  1  0
 18 40  1  1
 18 41  1  0
 18 42  1  0
 19 20  1  0
 19 43  1  1
 19 44  1  0
 20 45  1  1
 20 46  1  0
 20 47  1  0
 21 22  1  0
 21 48  1  1
 21 49  1  0
 22 27  2  0
 22 23  1  0
 23 24  2  0
 23 50  1  0
 24 25  1  0
 24 51  1  0
 25 26  2  0
 25 52  1  0
 26 27  1  0
 26 53  1  0
 27 54  1  0
 28 29  1  0
 28 55  1  0
 29 56  1  0
M  END
$$$$
