ZINC000004985929
     RDKit          3D

 47 49  0  0  1  0  0  0  0  0999 V2000
   -0.0078    1.5779   -0.1864 C   0  0  1  0  0  0  0  0  0  0  0  0
   -0.0505    0.0894    0.1649 C   0  0  2  0  0  0  0  0  0  0  0  0
    0.4958   -0.4807   -0.5865 H   0  0  0  0  0  0  0  0  0  0  0  0
   -1.4461   -0.3674    0.2146 N   0  0  0  0  0  0  0  0  0  0  0  0
   -2.4335   -0.0447   -0.6441 C   0  0  0  0  0  0  0  0  0  0  0  0
   -2.2561    0.8244   -1.4756 O   0  0  0  0  0  0  0  0  0  0  0  0
   -3.6175   -0.6855   -0.5811 N   0  0  0  0  0  0  0  0  0  0  0  0
   -4.7559   -0.2566   -1.4090 C   0  0  1  0  0  0  0  0  0  0  0  0
   -5.3150   -1.4849   -2.1360 C   0  0  1  0  0  0  0  0  0  0  0  0
   -5.5768   -2.5175   -1.1825 O   0  0  0  0  0  0  0  0  0  0  0  0
   -4.4151   -2.9865   -0.4939 C   0  0  1  0  0  0  0  0  0  0  0  0
   -3.8082   -1.8385    0.3130 C   0  0  1  0  0  0  0  0  0  0  0  0
   -1.5507   -1.2500    1.3925 C   0  0  1  0  0  0  0  0  0  0  0  0
   -0.4685   -0.7219    2.3549 C   0  0  1  0  0  0  0  0  0  0  0  0
    0.5556   -0.1246    1.4850 N   0  0  0  0  0  0  0  0  0  0  0  0
    2.1128    0.2397    1.9146 S   0  0  1  0  0  0  0  0  0  0  0  0
    2.5497    1.2528    1.0190 O   0  0  0  0  0  0  0  0  0  0  0  0
    2.1129    0.3980    3.3268 O   0  0  0  0  0  0  0  0  0  0  0  0
    3.0945   -1.1832    1.5734 C   0  0  0  0  0  0  0  0  0  0  0  0
    3.2657   -2.1533    2.5428 C   0  0  0  0  0  0  0  0  0  0  0  0
    4.0360   -3.2697    2.2751 C   0  0  0  0  0  0  0  0  0  0  0  0
    4.6344   -3.4160    1.0378 C   0  0  0  0  0  0  0  0  0  0  0  0
    4.4624   -2.4460    0.0678 C   0  0  0  0  0  0  0  0  0  0  0  0
    5.1152   -2.6052   -1.2811 C   0  0  1  0  0  0  0  0  0  0  0  0
    5.8366   -3.8034   -1.3115 F   0  0  0  0  0  0  0  0  0  0  0  0
    4.1315   -2.6278   -2.2756 F   0  0  0  0  0  0  0  0  0  0  0  0
    5.9836   -1.5321   -1.5085 F   0  0  0  0  0  0  0  0  0  0  0  0
    3.6888   -1.3319    0.3340 C   0  0  0  0  0  0  0  0  0  0  0  0
    1.0276    1.9182   -0.2014 H   0  0  0  0  0  0  0  0  0  0  0  0
   -0.4553    1.7325   -1.1682 H   0  0  0  0  0  0  0  0  0  0  0  0
   -0.5654    2.1435    0.5601 H   0  0  0  0  0  0  0  0  0  0  0  0
   -5.5285    0.1776   -0.7743 H   0  0  0  0  0  0  0  0  0  0  0  0
   -4.4220    0.4813   -2.1385 H   0  0  0  0  0  0  0  0  0  0  0  0
   -6.2406   -1.2166   -2.6453 H   0  0  0  0  0  0  0  0  0  0  0  0
   -4.5867   -1.8391   -2.8654 H   0  0  0  0  0  0  0  0  0  0  0  0
   -4.6931   -3.7984    0.1781 H   0  0  0  0  0  0  0  0  0  0  0  0
   -3.6834   -3.3461   -1.2174 H   0  0  0  0  0  0  0  0  0  0  0  0
   -2.8479   -2.1475    0.7260 H   0  0  0  0  0  0  0  0  0  0  0  0
   -4.4840   -1.5610    1.1220 H   0  0  0  0  0  0  0  0  0  0  0  0
   -2.5385   -1.1663    1.8457 H   0  0  0  0  0  0  0  0  0  0  0  0
   -1.3433   -2.2834    1.1148 H   0  0  0  0  0  0  0  0  0  0  0  0
   -0.8882    0.0339    3.0188 H   0  0  0  0  0  0  0  0  0  0  0  0
   -0.0436   -1.5419    2.9338 H   0  0  0  0  0  0  0  0  0  0  0  0
    2.7981   -2.0390    3.5096 H   0  0  0  0  0  0  0  0  0  0  0  0
    4.1703   -4.0275    3.0328 H   0  0  0  0  0  0  0  0  0  0  0  0
    5.2367   -4.2878    0.8289 H   0  0  0  0  0  0  0  0  0  0  0  0
    3.5544   -0.5742   -0.4238 H   0  0  0  0  0  0  0  0  0  0  0  0
  1  2  1  0
  1 29  1  6
  1 30  1  0
  1 31  1  0
  2  3  1  6
  2 15  1  0
  2  4  1  0
  4  5  1  0
  4 13  1  0
  5  6  2  0
  5  7  1  0
  7 12  1  0
  7  8  1  0
  8  9  1  0
  8 32  1  1
  8 33  1  0
  9 10  1  0
  9 34  1  6
  9 35  1  0
 10 11  1  0
 11 12  1  0
 11 36  1  1
 11 37  1  0
 12 38  1  1
 12 39  1  0
 13 14  1  0
 13 40  1  1
 13 41  1  0
 14 15  1  0
 14 42  1  1
 14 43  1  0
 16 15  1  6
 16 17  2  0
 16 18  2  0
 16 19  1  0
 19 28  2  0
 19 20  1  0
 20 21  2  0
 20 44  1  0
 21 22  1  0
 21 45  1  0
 22 23  2  0
 22 46  1  0
 23 24  1  0
 23 28  1  0
 24 25  1  1
 24 26  1  0
 24 27  1  0
 28 47  1  0
M  END
$$$$
