ZINC000408600669
     RDKit          3D

 59 60  0  0  1  0  0  0  0  0999 V2000
   -0.0187    1.5258    0.0104 C   0  0  1  0  0  0  0  0  0  0  0  0
    0.0021   -0.0041    0.0020 C   0  0  1  0  0  0  0  0  0  0  0  0
    0.6878   -0.4765   -1.2033 N   0  0  0  0  0  0  0  0  0  0  0  0
    2.1478   -0.5966   -1.2159 C   0  0  1  0  0  0  0  0  0  0  0  0
    2.5532   -1.9514   -0.6319 C   0  0  1  0  0  0  0  0  0  0  0  0
   -0.1875   -0.8749   -2.5515 S   0  0  1  0  0  0  0  0  0  0  0  0
    0.6166   -1.7761   -3.3001 O   0  0  0  0  0  0  0  0  0  0  0  0
   -1.4970   -1.1925   -2.1004 O   0  0  0  0  0  0  0  0  0  0  0  0
   -0.3375    0.5853   -3.5262 C   0  0  0  0  0  0  0  0  0  0  0  0
   -1.4064    1.4399   -3.3289 C   0  0  0  0  0  0  0  0  0  0  0  0
   -1.5263    2.5854   -4.0918 C   0  0  0  0  0  0  0  0  0  0  0  0
   -0.5728    2.8781   -5.0561 C   0  0  0  0  0  0  0  0  0  0  0  0
   -0.6883    4.0045   -5.8076 O   0  0  0  0  0  0  0  0  0  0  0  0
    0.3301    4.2420   -6.7815 C   0  0  1  0  0  0  0  0  0  0  0  0
    0.0367    5.5269   -7.5122 C   0  0  0  0  0  0  0  0  0  0  0  0
   -0.9477    6.1755   -7.2270 O   0  0  0  0  0  0  0  0  0  0  0  0
    0.8681    5.9553   -8.4825 N   0  0  0  0  0  0  0  0  0  0  0  0
    0.5828    7.2044   -9.1929 C   0  0  2  0  0  0  0  0  0  0  0  0
    0.1307    7.9186   -8.5047 H   0  0  0  0  0  0  0  0  0  0  0  0
   -0.3831    6.9260  -10.3463 C   0  0  1  0  0  0  0  0  0  0  0  0
    1.8854    7.7848   -9.7472 C   0  0  1  0  0  0  0  0  0  0  0  0
    2.8023    8.1790   -8.5876 C   0  0  1  0  0  0  0  0  0  0  0  0
    4.0854    8.7506   -9.1336 C   0  0  0  0  0  0  0  0  0  0  0  0
    5.1555    7.9170   -9.3995 C   0  0  0  0  0  0  0  0  0  0  0  0
    6.3324    8.4413   -9.9004 C   0  0  0  0  0  0  0  0  0  0  0  0
    6.4390    9.7993  -10.1357 C   0  0  0  0  0  0  0  0  0  0  0  0
    5.3685   10.6329   -9.8707 C   0  0  0  0  0  0  0  0  0  0  0  0
    4.1902   10.1079   -9.3738 C   0  0  0  0  0  0  0  0  0  0  0  0
    0.4989    2.0192   -5.2518 C   0  0  0  0  0  0  0  0  0  0  0  0
    0.6169    0.8775   -4.4830 C   0  0  0  0  0  0  0  0  0  0  0  0
    1.0039    1.9031    0.0027 H   0  0  0  0  0  0  0  0  0  0  0  0
   -0.5459    1.8868   -0.8726 H   0  0  0  0  0  0  0  0  0  0  0  0
   -0.5289    1.8773    0.9072 H   0  0  0  0  0  0  0  0  0  0  0  0
    0.5293   -0.3651    0.8851 H   0  0  0  0  0  0  0  0  0  0  0  0
   -1.0205   -0.3814    0.0098 H   0  0  0  0  0  0  0  0  0  0  0  0
    2.5098   -0.5199   -2.2412 H   0  0  0  0  0  0  0  0  0  0  0  0
    2.5833    0.2026   -0.6162 H   0  0  0  0  0  0  0  0  0  0  0  0
    2.1177   -2.7506   -1.2316 H   0  0  0  0  0  0  0  0  0  0  0  0
    3.6395   -2.0407   -0.6413 H   0  0  0  0  0  0  0  0  0  0  0  0
    2.1912   -2.0280    0.3934 H   0  0  0  0  0  0  0  0  0  0  0  0
   -2.1483    1.2116   -2.5781 H   0  0  0  0  0  0  0  0  0  0  0  0
   -2.3617    3.2523   -3.9379 H   0  0  0  0  0  0  0  0  0  0  0  0
    1.2971    4.3193   -6.2845 H   0  0  0  0  0  0  0  0  0  0  0  0
    0.3522    3.4164   -7.4928 H   0  0  0  0  0  0  0  0  0  0  0  0
    1.6554    5.4366   -8.7106 H   0  0  0  0  0  0  0  0  0  0  0  0
   -1.3110    6.5126   -9.9514 H   0  0  0  0  0  0  0  0  0  0  0  0
   -0.5953    7.8554  -10.8748 H   0  0  0  0  0  0  0  0  0  0  0  0
    0.0691    6.2118  -11.0345 H   0  0  0  0  0  0  0  0  0  0  0  0
    2.3823    7.0371  -10.3653 H   0  0  0  0  0  0  0  0  0  0  0  0
    1.6633    8.6653  -10.3502 H   0  0  0  0  0  0  0  0  0  0  0  0
    2.3055    8.9267   -7.9695 H   0  0  0  0  0  0  0  0  0  0  0  0
    3.0245    7.2985   -7.9846 H   0  0  0  0  0  0  0  0  0  0  0  0
    5.0722    6.8560   -9.2156 H   0  0  0  0  0  0  0  0  0  0  0  0
    7.1687    7.7901  -10.1074 H   0  0  0  0  0  0  0  0  0  0  0  0
    7.3587   10.2091  -10.5264 H   0  0  0  0  0  0  0  0  0  0  0  0
    5.4519   11.6939  -10.0542 H   0  0  0  0  0  0  0  0  0  0  0  0
    3.3539   10.7591   -9.1668 H   0  0  0  0  0  0  0  0  0  0  0  0
    1.2423    2.2447   -6.0021 H   0  0  0  0  0  0  0  0  0  0  0  0
    1.4512    0.2087   -4.6347 H   0  0  0  0  0  0  0  0  0  0  0  0
  1  2  1  0
  1 31  1  6
  1 32  1  0
  1 33  1  0
  2  3  1  0
  2 34  1  1
  2 35  1  0
  3  4  1  0
  6  3  1  1
  4  5  1  0
  4 36  1  6
  4 37  1  0
  5 38  1  6
  5 39  1  0
  5 40  1  0
  6  7  2  0
  6  8  2  0
  6  9  1  0
  9 30  2  0
  9 10  1  0
 10 11  2  0
 10 41  1  0
 11 12  1  0
 11 42  1  0
 12 13  1  0
 12 29  2  0
 13 14  1  0
 14 15  1  0
 14 43  1  1
 14 44  1  0
 15 16  2  0
 15 17  1  0
 17 18  1  0
 17 45  1  0
 18 19  1  1
 18 20  1  0
 18 21  1  0
 20 46  1  1
 20 47  1  0
 20 48  1  0
 21 22  1  0
 21 49  1  6
 21 50  1  0
 22 23  1  0
 22 51  1  1
 22 52  1  0
 23 28  2  0
 23 24  1  0
 24 25  2  0
 24 53  1  0
 25 26  1  0
 25 54  1  0
 26 27  2  0
 26 55  1  0
 27 28  1  0
 27 56  1  0
 28 57  1  0
 29 30  1  0
 29 58  1  0
 30 59  1  0
M  END
$$$$
