ZINC000010679653
     RDKit          3D

 47 49  0  0  0  0  0  0  0  0999 V2000
    0.0021   -0.0041    0.0020 O   0  0  0  0  0  0  0  0  0  0  0  0
   -0.0144    1.2113    0.0087 C   0  0  0  0  0  0  0  0  0  0  0  0
    1.1435    1.9010    0.0013 N   0  0  0  0  0  0  0  0  0  0  0  0
    2.4220    1.1859   -0.0147 C   0  0  1  0  0  0  0  0  0  0  0  0
    2.7910    0.8335   -1.4575 C   0  0  1  0  0  0  0  0  0  0  0  0
    4.1107    0.0557   -1.4674 C   0  0  1  0  0  0  0  0  0  0  0  0
    5.1291    0.8433   -0.7593 N   0  0  0  0  0  0  0  0  0  0  0  0
    6.5760    1.1970   -1.4830 S   0  0  1  0  0  0  0  0  0  0  0  0
    7.5000    1.4451   -0.4323 O   0  0  0  0  0  0  0  0  0  0  0  0
    6.7798    0.2043   -2.4790 O   0  0  0  0  0  0  0  0  0  0  0  0
    6.3722    2.7245   -2.3373 C   0  0  0  0  0  0  0  0  0  0  0  0
    5.9418    2.7296   -3.6510 C   0  0  0  0  0  0  0  0  0  0  0  0
    5.7819    3.9280   -4.3212 C   0  0  0  0  0  0  0  0  0  0  0  0
    6.0519    5.1213   -3.6777 C   0  0  0  0  0  0  0  0  0  0  0  0
    5.8780    6.4276   -4.4086 C   0  0  1  0  0  0  0  0  0  0  0  0
    4.5720    6.8944   -4.2252 F   0  0  0  0  0  0  0  0  0  0  0  0
    6.7840    7.3675   -3.9056 F   0  0  0  0  0  0  0  0  0  0  0  0
    6.1167    6.2338   -5.7734 F   0  0  0  0  0  0  0  0  0  0  0  0
    6.4809    5.1162   -2.3636 C   0  0  0  0  0  0  0  0  0  0  0  0
    6.6371    3.9180   -1.6922 C   0  0  0  0  0  0  0  0  0  0  0  0
    4.8391    1.3114    0.6028 C   0  0  1  0  0  0  0  0  0  0  0  0
    3.5112    2.0751    0.5895 C   0  0  1  0  0  0  0  0  0  0  0  0
   -1.3047    1.9331    0.0187 C   0  0  0  0  0  0  0  0  0  0  0  0
   -1.3272    3.3287    0.0206 C   0  0  0  0  0  0  0  0  0  0  0  0
   -2.5345    3.9960    0.0295 C   0  0  0  0  0  0  0  0  0  0  0  0
   -3.7214    3.2849    0.0371 C   0  0  0  0  0  0  0  0  0  0  0  0
   -3.7062    1.9014    0.0353 C   0  0  0  0  0  0  0  0  0  0  0  0
   -2.5057    1.2219    0.0206 C   0  0  0  0  0  0  0  0  0  0  0  0
    1.1303    2.8709    0.0067 H   0  0  0  0  0  0  0  0  0  0  0  0
    2.3337    0.2710    0.5712 H   0  0  0  0  0  0  0  0  0  0  0  0
    2.0036    0.2195   -1.8948 H   0  0  0  0  0  0  0  0  0  0  0  0
    2.9039    1.7490   -2.0382 H   0  0  0  0  0  0  0  0  0  0  0  0
    3.9744   -0.9018   -0.9647 H   0  0  0  0  0  0  0  0  0  0  0  0
    4.4285   -0.1116   -2.4966 H   0  0  0  0  0  0  0  0  0  0  0  0
    5.7309    1.7974   -4.1537 H   0  0  0  0  0  0  0  0  0  0  0  0
    5.4464    3.9320   -5.3478 H   0  0  0  0  0  0  0  0  0  0  0  0
    6.6915    6.0485   -1.8607 H   0  0  0  0  0  0  0  0  0  0  0  0
    6.9723    3.9141   -0.6655 H   0  0  0  0  0  0  0  0  0  0  0  0
    4.7622    0.4563    1.2744 H   0  0  0  0  0  0  0  0  0  0  0  0
    5.6375    1.9726    0.9397 H   0  0  0  0  0  0  0  0  0  0  0  0
    3.6173    2.9789   -0.0104 H   0  0  0  0  0  0  0  0  0  0  0  0
    3.2364    2.3448    1.6093 H   0  0  0  0  0  0  0  0  0  0  0  0
   -0.4014    3.8848    0.0154 H   0  0  0  0  0  0  0  0  0  0  0  0
   -2.5533    5.0758    0.0309 H   0  0  0  0  0  0  0  0  0  0  0  0
   -4.6640    3.8122    0.0447 H   0  0  0  0  0  0  0  0  0  0  0  0
   -4.6361    1.3523    0.0412 H   0  0  0  0  0  0  0  0  0  0  0  0
   -2.4951    0.1419    0.0188 H   0  0  0  0  0  0  0  0  0  0  0  0
  1  2  2  0
  2  3  1  0
  2 23  1  0
  3  4  1  0
  3 29  1  0
  4 22  1  0
  4  5  1  0
  4 30  1  1
  5  6  1  0
  5 31  1  6
  5 32  1  0
  6  7  1  0
  6 33  1  1
  6 34  1  0
  8  7  1  1
  7 21  1  0
  8  9  2  0
  8 10  2  0
  8 11  1  0
 11 20  2  0
 11 12  1  0
 12 13  2  0
 12 35  1  0
 13 14  1  0
 13 36  1  0
 14 15  1  0
 14 19  2  0
 15 16  1  6
 15 17  1  0
 15 18  1  0
 19 20  1  0
 19 37  1  0
 20 38  1  0
 21 22  1  0
 21 39  1  1
 21 40  1  0
 22 41  1  6
 22 42  1  0
 23 28  2  0
 23 24  1  0
 24 25  2  0
 24 43  1  0
 25 26  1  0
 25 44  1  0
 26 27  2  0
 26 45  1  0
 27 28  1  0
 27 46  1  0
 28 47  1  0
M  END
$$$$
