ZINC000026569930
     RDKit          3D

 47 49  0  0  1  0  0  0  0  0999 V2000
   -0.0184    1.5028    0.0103 C   0  0  1  0  0  0  0  0  0  0  0  0
    0.0021   -0.0041    0.0020 C   0  0  0  0  0  0  0  0  0  0  0  0
   -1.0773   -0.7877    0.0028 C   0  0  0  0  0  0  0  0  0  0  0  0
   -0.8118   -2.1462   -0.0063 C   0  0  0  0  0  0  0  0  0  0  0  0
    0.4832   -2.4658   -0.0145 C   0  0  0  0  0  0  0  0  0  0  0  0
    1.1244   -4.1069   -0.0280 S   0  0  1  0  0  0  0  0  0  0  0  0
    2.4370   -4.0293    0.5108 O   0  0  0  0  0  0  0  0  0  0  0  0
    0.1090   -4.9389    0.5160 O   0  0  0  0  0  0  0  0  0  0  0  0
    1.2953   -4.5534   -1.6135 N   0  0  0  0  0  0  0  0  0  0  0  0
    0.2660   -5.2153   -2.4355 C   0  0  1  0  0  0  0  0  0  0  0  0
    0.6359   -4.8590   -3.8969 C   0  0  1  0  0  0  0  0  0  0  0  0
    2.1861   -4.8992   -3.8445 C   0  0  1  0  0  0  0  0  0  0  0  0
    2.4966   -4.3496   -2.4363 C   0  0  2  0  0  0  0  0  0  0  0  0
    2.7346   -3.2877   -2.4970 H   0  0  0  0  0  0  0  0  0  0  0  0
    3.6572   -5.1013   -1.8372 C   0  0  0  0  0  0  0  0  0  0  0  0
    3.5063   -5.7342   -0.8137 O   0  0  0  0  0  0  0  0  0  0  0  0
    4.8628   -5.0702   -2.4388 N   0  0  0  0  0  0  0  0  0  0  0  0
    5.9911   -5.8010   -1.8564 C   0  0  1  0  0  0  0  0  0  0  0  0
    7.2139   -5.6046   -2.7151 C   0  0  0  0  0  0  0  0  0  0  0  0
    7.4765   -6.4780   -3.7538 C   0  0  0  0  0  0  0  0  0  0  0  0
    8.5981   -6.2979   -4.5415 C   0  0  0  0  0  0  0  0  0  0  0  0
    9.4568   -5.2440   -4.2908 C   0  0  0  0  0  0  0  0  0  0  0  0
   10.6798   -5.0478   -5.1492 C   0  0  1  0  0  0  0  0  0  0  0  0
   10.3609   -4.2240   -6.2340 F   0  0  0  0  0  0  0  0  0  0  0  0
   11.6910   -4.4490   -4.3903 F   0  0  0  0  0  0  0  0  0  0  0  0
   11.1228   -6.2885   -5.6202 F   0  0  0  0  0  0  0  0  0  0  0  0
    9.1934   -4.3697   -3.2529 C   0  0  0  0  0  0  0  0  0  0  0  0
    8.0698   -4.5477   -2.4676 C   0  0  0  0  0  0  0  0  0  0  0  0
    1.4528   -0.9983   -0.0178 S   0  0  0  0  0  0  0  0  0  0  0  0
    1.0042    1.8801    0.0026 H   0  0  0  0  0  0  0  0  0  0  0  0
   -0.5455    1.8639   -0.8728 H   0  0  0  0  0  0  0  0  0  0  0  0
   -0.5286    1.8543    0.9071 H   0  0  0  0  0  0  0  0  0  0  0  0
   -2.0823   -0.3923    0.0103 H   0  0  0  0  0  0  0  0  0  0  0  0
   -1.5939   -2.8910   -0.0065 H   0  0  0  0  0  0  0  0  0  0  0  0
    0.2991   -6.2948   -2.2881 H   0  0  0  0  0  0  0  0  0  0  0  0
   -0.7228   -4.8282   -2.1893 H   0  0  0  0  0  0  0  0  0  0  0  0
    0.2490   -5.6051   -4.5909 H   0  0  0  0  0  0  0  0  0  0  0  0
    0.2796   -3.8626   -4.1583 H   0  0  0  0  0  0  0  0  0  0  0  0
    2.5492   -5.9213   -3.9522 H   0  0  0  0  0  0  0  0  0  0  0  0
    2.6148   -4.2536   -4.6110 H   0  0  0  0  0  0  0  0  0  0  0  0
    4.9835   -4.5641   -3.2574 H   0  0  0  0  0  0  0  0  0  0  0  0
    6.1881   -5.4251   -0.8524 H   0  0  0  0  0  0  0  0  0  0  0  0
    5.7493   -6.8626   -1.8059 H   0  0  0  0  0  0  0  0  0  0  0  0
    6.8056   -7.3014   -3.9497 H   0  0  0  0  0  0  0  0  0  0  0  0
    8.8037   -6.9807   -5.3526 H   0  0  0  0  0  0  0  0  0  0  0  0
    9.8641   -3.5461   -3.0572 H   0  0  0  0  0  0  0  0  0  0  0  0
    7.8640   -3.8646   -1.6567 H   0  0  0  0  0  0  0  0  0  0  0  0
  1  2  1  0
  1 30  1  6
  1 31  1  0
  1 32  1  0
  2 29  1  0
  2  3  2  0
  3  4  1  0
  3 33  1  0
  4  5  2  0
  4 34  1  0
  5  6  1  0
  5 29  1  0
  6  7  2  0
  6  8  2  0
  6  9  1  6
  9 13  1  0
  9 10  1  0
 10 11  1  0
 10 35  1  6
 10 36  1  0
 11 12  1  0
 11 37  1  6
 11 38  1  0
 12 13  1  0
 12 39  1  1
 12 40  1  0
 13 14  1  6
 13 15  1  0
 15 16  2  0
 15 17  1  0
 17 18  1  0
 17 41  1  0
 18 19  1  0
 18 42  1  1
 18 43  1  0
 19 28  2  0
 19 20  1  0
 20 21  2  0
 20 44  1  0
 21 22  1  0
 21 45  1  0
 22 23  1  0
 22 27  2  0
 23 24  1  6
 23 25  1  0
 23 26  1  0
 27 28  1  0
 27 46  1  0
 28 47  1  0
M  END
$$$$
