ZINC000012883027
     RDKit          3D

 39 40  0  0  1  0  0  0  0  0999 V2000
   -0.0319    1.5308    0.1856 C   0  0  1  0  0  0  0  0  0  0  0  0
   -0.0052    0.0041    0.0881 C   0  0  2  0  0  0  0  0  0  0  0  0
    0.3758   -0.2930   -0.8889 H   0  0  0  0  0  0  0  0  0  0  0  0
   -1.4220   -0.5473    0.2763 C   0  0  1  0  0  0  0  0  0  0  0  0
   -1.3688   -2.0762    0.3169 C   0  0  1  0  0  0  0  0  0  0  0  0
   -0.5134   -2.5273    1.5031 C   0  0  1  0  0  0  0  0  0  0  0  0
    0.9137   -1.9983    1.3288 C   0  0  2  0  0  0  0  0  0  0  0  0
    1.3706   -2.4609    0.4540 H   0  0  0  0  0  0  0  0  0  0  0  0
    1.7390   -2.3293    2.5739 C   0  0  1  0  0  0  0  0  0  0  0  0
    0.8615   -0.5416    1.1416 N   0  0  0  0  0  0  0  0  0  0  0  0
    1.7576    0.4654    2.1035 S   0  0  1  0  0  0  0  0  0  0  0  0
    1.1021    1.7261    2.0852 O   0  0  0  0  0  0  0  0  0  0  0  0
    2.0245   -0.2545    3.2992 O   0  0  0  0  0  0  0  0  0  0  0  0
    3.3116    0.7010    1.3072 C   0  0  0  0  0  0  0  0  0  0  0  0
    4.3611   -0.1585    1.5720 C   0  0  0  0  0  0  0  0  0  0  0  0
    5.5805    0.0264    0.9471 C   0  0  0  0  0  0  0  0  0  0  0  0
    5.7498    1.0704    0.0573 C   0  0  0  0  0  0  0  0  0  0  0  0
    4.6997    1.9296   -0.2082 C   0  0  0  0  0  0  0  0  0  0  0  0
    4.8845    3.0682   -1.1780 C   0  0  1  0  0  0  0  0  0  0  0  0
    6.1919    3.0494   -1.6757 F   0  0  0  0  0  0  0  0  0  0  0  0
    3.9805    2.9303   -2.2368 F   0  0  0  0  0  0  0  0  0  0  0  0
    4.6527    4.2818   -0.5220 F   0  0  0  0  0  0  0  0  0  0  0  0
    3.4795    1.7422    0.4132 C   0  0  0  0  0  0  0  0  0  0  0  0
    0.9889    1.9130    0.1827 H   0  0  0  0  0  0  0  0  0  0  0  0
   -0.5754    1.9398   -0.6661 H   0  0  0  0  0  0  0  0  0  0  0  0
   -0.5282    1.8273    1.1096 H   0  0  0  0  0  0  0  0  0  0  0  0
   -1.8369   -0.1727    1.2121 H   0  0  0  0  0  0  0  0  0  0  0  0
   -2.0504   -0.2271   -0.5548 H   0  0  0  0  0  0  0  0  0  0  0  0
   -2.3785   -2.4720    0.4261 H   0  0  0  0  0  0  0  0  0  0  0  0
   -0.9310   -2.4491   -0.6091 H   0  0  0  0  0  0  0  0  0  0  0  0
   -0.9369   -2.1341    2.4273 H   0  0  0  0  0  0  0  0  0  0  0  0
   -0.4951   -3.6163    1.5452 H   0  0  0  0  0  0  0  0  0  0  0  0
    1.8626   -3.4095    2.6513 H   0  0  0  0  0  0  0  0  0  0  0  0
    2.7180   -1.8562    2.4972 H   0  0  0  0  0  0  0  0  0  0  0  0
    1.2244   -1.9580    3.4602 H   0  0  0  0  0  0  0  0  0  0  0  0
    4.2288   -0.9742    2.2672 H   0  0  0  0  0  0  0  0  0  0  0  0
    6.4008   -0.6448    1.1546 H   0  0  0  0  0  0  0  0  0  0  0  0
    6.7026    1.2152   -0.4303 H   0  0  0  0  0  0  0  0  0  0  0  0
    2.6591    2.4133    0.2057 H   0  0  0  0  0  0  0  0  0  0  0  0
  1  2  1  0
  1 24  1  1
  1 25  1  0
  1 26  1  0
  2  3  1  6
  2 10  1  0
  2  4  1  0
  4  5  1  0
  4 27  1  1
  4 28  1  0
  5  6  1  0
  5 29  1  1
  5 30  1  0
  6  7  1  0
  6 31  1  1
  6 32  1  0
  7  8  1  6
  7  9  1  0
  7 10  1  0
  9 33  1  1
  9 34  1  0
  9 35  1  0
 11 10  1  6
 11 12  2  0
 11 13  2  0
 11 14  1  0
 14 23  2  0
 14 15  1  0
 15 16  2  0
 15 36  1  0
 16 17  1  0
 16 37  1  0
 17 18  2  0
 17 38  1  0
 18 19  1  0
 18 23  1  0
 19 20  1  6
 19 21  1  0
 19 22  1  0
 23 39  1  0
M  END
$$$$
