ZINC000020032659
     RDKit          3D

 61 62  0  0  0  0  0  0  0  0999 V2000
   -0.0187    1.5258    0.0104 C   0  0  1  0  0  0  0  0  0  0  0  0
    0.0021   -0.0041    0.0020 C   0  0  1  0  0  0  0  0  0  0  0  0
   -1.3723   -0.5112    0.0124 N   0  0  0  0  0  0  0  0  0  0  0  0
   -2.1099   -0.6542   -1.2453 C   0  0  1  0  0  0  0  0  0  0  0  0
   -1.7727   -2.0031   -1.8836 C   0  0  1  0  0  0  0  0  0  0  0  0
   -2.0922   -0.9227    1.4458 S   0  0  1  0  0  0  0  0  0  0  0  0
   -3.1196   -1.8512    1.1269 O   0  0  0  0  0  0  0  0  0  0  0  0
   -1.0393   -1.2108    2.3555 O   0  0  0  0  0  0  0  0  0  0  0  0
   -2.8978    0.5199    2.0580 C   0  0  0  0  0  0  0  0  0  0  0  0
   -2.2144    1.3948    2.8821 C   0  0  0  0  0  0  0  0  0  0  0  0
   -2.8437    2.5265    3.3633 C   0  0  0  0  0  0  0  0  0  0  0  0
   -4.1624    2.7850    3.0187 C   0  0  0  0  0  0  0  0  0  0  0  0
   -4.7836    3.8979    3.4905 O   0  0  0  0  0  0  0  0  0  0  0  0
   -6.1417    4.0999    3.0945 C   0  0  1  0  0  0  0  0  0  0  0  0
   -6.6600    5.3744    3.7095 C   0  0  0  0  0  0  0  0  0  0  0  0
   -5.9375    6.0437    4.4172 O   0  0  0  0  0  0  0  0  0  0  0  0
   -7.9264    5.7703    3.4731 N   0  0  0  0  0  0  0  0  0  0  0  0
   -8.4302    7.0092    4.0709 C   0  0  1  0  0  0  0  0  0  0  0  0
   -9.8625    7.2223    3.6533 C   0  0  0  0  0  0  0  0  0  0  0  0
  -10.1484    7.9286    2.5000 C   0  0  0  0  0  0  0  0  0  0  0  0
  -11.4621    8.1240    2.1169 C   0  0  0  0  0  0  0  0  0  0  0  0
  -12.4900    7.6128    2.8870 C   0  0  0  0  0  0  0  0  0  0  0  0
  -14.1646    7.8624    2.3991 S   0  0  1  0  0  0  0  0  0  0  0  0
  -14.9479    7.7455    3.5789 O   0  0  0  0  0  0  0  0  0  0  0  0
  -14.1735    9.0174    1.5715 O   0  0  0  0  0  0  0  0  0  0  0  0
  -14.5875    6.5887    1.4290 N   0  0  0  0  0  0  0  0  0  0  0  0
  -15.1677    5.3797    2.0188 C   0  0  1  0  0  0  0  0  0  0  0  0
  -14.3815    6.6709   -0.0191 C   0  0  1  0  0  0  0  0  0  0  0  0
  -12.2040    6.9053    4.0397 C   0  0  0  0  0  0  0  0  0  0  0  0
  -10.8901    6.7066    4.4207 C   0  0  0  0  0  0  0  0  0  0  0  0
   -4.8459    1.9058    2.1913 C   0  0  0  0  0  0  0  0  0  0  0  0
   -4.2105    0.7780    1.7088 C   0  0  0  0  0  0  0  0  0  0  0  0
    1.0039    1.9031    0.0027 H   0  0  0  0  0  0  0  0  0  0  0  0
   -0.5459    1.8868   -0.8726 H   0  0  0  0  0  0  0  0  0  0  0  0
   -0.5289    1.8773    0.9072 H   0  0  0  0  0  0  0  0  0  0  0  0
    0.5123   -0.3556   -0.8948 H   0  0  0  0  0  0  0  0  0  0  0  0
    0.5293   -0.3651    0.8851 H   0  0  0  0  0  0  0  0  0  0  0  0
   -3.1804   -0.6037   -1.0465 H   0  0  0  0  0  0  0  0  0  0  0  0
   -1.8283    0.1500   -1.9251 H   0  0  0  0  0  0  0  0  0  0  0  0
   -0.7022   -2.0536   -2.0825 H   0  0  0  0  0  0  0  0  0  0  0  0
   -2.0544   -2.8073   -1.2038 H   0  0  0  0  0  0  0  0  0  0  0  0
   -2.3215   -2.1096   -2.8194 H   0  0  0  0  0  0  0  0  0  0  0  0
   -1.1877    1.1931    3.1500 H   0  0  0  0  0  0  0  0  0  0  0  0
   -2.3096    3.2093    4.0075 H   0  0  0  0  0  0  0  0  0  0  0  0
   -6.1966    4.1721    2.0083 H   0  0  0  0  0  0  0  0  0  0  0  0
   -6.7479    3.2600    3.4339 H   0  0  0  0  0  0  0  0  0  0  0  0
   -8.5043    5.2349    2.9071 H   0  0  0  0  0  0  0  0  0  0  0  0
   -8.3753    6.9370    5.1571 H   0  0  0  0  0  0  0  0  0  0  0  0
   -7.8240    7.8491    3.7315 H   0  0  0  0  0  0  0  0  0  0  0  0
   -9.3454    8.3281    1.8983 H   0  0  0  0  0  0  0  0  0  0  0  0
  -11.6855    8.6765    1.2162 H   0  0  0  0  0  0  0  0  0  0  0  0
  -16.2528    5.4772    2.0537 H   0  0  0  0  0  0  0  0  0  0  0  0
  -14.9000    4.5148    1.4118 H   0  0  0  0  0  0  0  0  0  0  0  0
  -14.7821    5.2475    3.0297 H   0  0  0  0  0  0  0  0  0  0  0  0
  -13.3892    6.2940   -0.2669 H   0  0  0  0  0  0  0  0  0  0  0  0
  -15.1357    6.0708   -0.5281 H   0  0  0  0  0  0  0  0  0  0  0  0
  -14.4662    7.7092   -0.3398 H   0  0  0  0  0  0  0  0  0  0  0  0
  -13.0070    6.5055    4.6411 H   0  0  0  0  0  0  0  0  0  0  0  0
  -10.6667    6.1538    5.3212 H   0  0  0  0  0  0  0  0  0  0  0  0
   -5.8726    2.1046    1.9219 H   0  0  0  0  0  0  0  0  0  0  0  0
   -4.7420    0.0934    1.0644 H   0  0  0  0  0  0  0  0  0  0  0  0
  1  2  1  0
  1 33  1  6
  1 34  1  0
  1 35  1  0
  2  3  1  0
  2 36  1  6
  2 37  1  0
  3  4  1  0
  6  3  1  6
  4  5  1  0
  4 38  1  1
  4 39  1  0
  5 40  1  6
  5 41  1  0
  5 42  1  0
  6  7  2  0
  6  8  2  0
  6  9  1  0
  9 32  2  0
  9 10  1  0
 10 11  2  0
 10 43  1  0
 11 12  1  0
 11 44  1  0
 12 13  1  0
 12 31  2  0
 13 14  1  0
 14 15  1  0
 14 45  1  6
 14 46  1  0
 15 16  2  0
 15 17  1  0
 17 18  1  0
 17 47  1  0
 18 19  1  0
 18 48  1  1
 18 49  1  0
 19 30  2  0
 19 20  1  0
 20 21  2  0
 20 50  1  0
 21 22  1  0
 21 51  1  0
 22 23  1  0
 22 29  2  0
 23 24  2  0
 23 25  2  0
 23 26  1  6
 26 27  1  0
 26 28  1  0
 27 52  1  1
 27 53  1  0
 27 54  1  0
 28 55  1  1
 28 56  1  0
 28 57  1  0
 29 30  1  0
 29 58  1  0
 30 59  1  0
 31 32  1  0
 31 60  1  0
 32 61  1  0
M  END
$$$$
