ZINC000053891756
     RDKit          3D

 43 45  0  0  1  0  0  0  0  0999 V2000
   -1.0908    2.3955   -0.3638 N   0  0  0  0  0  0  0  0  0  0  0  0
   -1.4018    1.2855    0.3346 C   0  0  0  0  0  0  0  0  0  0  0  0
   -0.7043    0.9386    1.2641 O   0  0  0  0  0  0  0  0  0  0  0  0
   -2.6164    0.4756   -0.0395 C   0  0  2  0  0  0  0  0  0  0  0  0
   -3.5212    1.0801    0.0241 H   0  0  0  0  0  0  0  0  0  0  0  0
   -2.7323   -0.7939    0.8450 C   0  0  1  0  0  0  0  0  0  0  0  0
   -3.5170   -1.7716   -0.0549 C   0  0  1  0  0  0  0  0  0  0  0  0
   -3.3351   -1.3276   -1.4446 N   0  0  0  0  0  0  0  0  0  0  0  0
   -3.8802   -1.9075   -2.5322 C   0  0  0  0  0  0  0  0  0  0  0  0
   -3.7307   -1.4042   -3.6288 O   0  0  0  0  0  0  0  0  0  0  0  0
   -4.6587   -3.1540   -2.3921 C   0  0  0  0  0  0  0  0  0  0  0  0
   -4.1233   -4.2422   -1.7033 C   0  0  0  0  0  0  0  0  0  0  0  0
   -4.8553   -5.4047   -1.5754 C   0  0  0  0  0  0  0  0  0  0  0  0
   -6.1215   -5.5001   -2.1279 C   0  0  0  0  0  0  0  0  0  0  0  0
   -6.6676   -4.4330   -2.8132 C   0  0  0  0  0  0  0  0  0  0  0  0
   -5.9474   -3.2498   -2.9475 C   0  0  0  0  0  0  0  0  0  0  0  0
   -6.5297   -2.1020   -3.6822 C   0  0  0  0  0  0  0  0  0  0  0  0
   -6.6481   -0.8600   -3.0597 C   0  0  0  0  0  0  0  0  0  0  0  0
   -7.1912    0.2051   -3.7489 C   0  0  0  0  0  0  0  0  0  0  0  0
   -7.6177    0.0423   -5.0548 C   0  0  0  0  0  0  0  0  0  0  0  0
   -8.2099    1.2095   -5.8019 C   0  0  1  0  0  0  0  0  0  0  0  0
   -7.1924    1.9024   -6.4665 F   0  0  0  0  0  0  0  0  0  0  0  0
   -9.1418    0.7417   -6.7345 F   0  0  0  0  0  0  0  0  0  0  0  0
   -8.8451    2.0678   -4.8980 F   0  0  0  0  0  0  0  0  0  0  0  0
   -7.5024   -1.1874   -5.6777 C   0  0  0  0  0  0  0  0  0  0  0  0
   -6.9561   -2.2585   -5.0005 C   0  0  0  0  0  0  0  0  0  0  0  0
   -2.4590   -0.1414   -1.4516 C   0  0  1  0  0  0  0  0  0  0  0  0
   -0.3090    2.9168   -0.1230 H   0  0  0  0  0  0  0  0  0  0  0  0
   -1.6464    2.6708   -1.1097 H   0  0  0  0  0  0  0  0  0  0  0  0
   -1.7451   -1.1925    1.0787 H   0  0  0  0  0  0  0  0  0  0  0  0
   -3.2884   -0.5787    1.7575 H   0  0  0  0  0  0  0  0  0  0  0  0
   -3.1257   -2.7818    0.0657 H   0  0  0  0  0  0  0  0  0  0  0  0
   -4.5750   -1.7481    0.2063 H   0  0  0  0  0  0  0  0  0  0  0  0
   -3.1361   -4.1750   -1.2705 H   0  0  0  0  0  0  0  0  0  0  0  0
   -4.4380   -6.2457   -1.0415 H   0  0  0  0  0  0  0  0  0  0  0  0
   -6.6853   -6.4151   -2.0223 H   0  0  0  0  0  0  0  0  0  0  0  0
   -7.6558   -4.5151   -3.2412 H   0  0  0  0  0  0  0  0  0  0  0  0
   -6.3158   -0.7318   -2.0401 H   0  0  0  0  0  0  0  0  0  0  0  0
   -7.2838    1.1675   -3.2677 H   0  0  0  0  0  0  0  0  0  0  0  0
   -7.8370   -1.3085   -6.6974 H   0  0  0  0  0  0  0  0  0  0  0  0
   -6.8662   -3.2180   -5.4879 H   0  0  0  0  0  0  0  0  0  0  0  0
   -2.7844    0.5661   -2.2143 H   0  0  0  0  0  0  0  0  0  0  0  0
   -1.4235   -0.4356   -1.6230 H   0  0  0  0  0  0  0  0  0  0  0  0
  1  2  1  0
  1 28  1  0
  1 29  1  0
  2  3  2  0
  2  4  1  0
  4  5  1  6
  4 27  1  0
  4  6  1  0
  6  7  1  0
  6 30  1  1
  6 31  1  0
  7  8  1  0
  7 32  1  6
  7 33  1  0
  8  9  1  0
  8 27  1  0
  9 10  2  0
  9 11  1  0
 11 16  2  0
 11 12  1  0
 12 13  2  0
 12 34  1  0
 13 14  1  0
 13 35  1  0
 14 15  2  0
 14 36  1  0
 15 16  1  0
 15 37  1  0
 16 17  1  0
 17 26  2  0
 17 18  1  0
 18 19  2  0
 18 38  1  0
 19 20  1  0
 19 39  1  0
 20 21  1  0
 20 25  2  0
 21 22  1  6
 21 23  1  0
 21 24  1  0
 25 26  1  0
 25 40  1  0
 26 41  1  0
 27 42  1  6
 27 43  1  0
M  END
$$$$
