ZINC000408703968
     RDKit          3D

 49 51  0  0  1  0  0  0  0  0999 V2000
    0.5865    0.9670    0.6613 C   0  0  1  0  0  0  0  0  0  0  0  0
   -0.0087   -0.3942    0.2958 C   0  0  2  0  0  0  0  0  0  0  0  0
   -1.0914   -0.3619    0.4179 H   0  0  0  0  0  0  0  0  0  0  0  0
    0.5674   -1.4535    1.1996 C   0  0  0  0  0  0  0  0  0  0  0  0
    1.1884   -2.3819    0.7268 O   0  0  0  0  0  0  0  0  0  0  0  0
    0.3927   -1.3693    2.5333 N   0  0  0  0  0  0  0  0  0  0  0  0
    1.0273   -2.2837    3.3812 C   0  0  0  0  0  0  0  0  0  0  0  0
    0.4092   -2.6865    4.5578 C   0  0  0  0  0  0  0  0  0  0  0  0
    1.0383   -3.5891    5.3926 C   0  0  0  0  0  0  0  0  0  0  0  0
    2.2825   -4.0915    5.0582 C   0  0  0  0  0  0  0  0  0  0  0  0
    2.9663   -5.0759    5.9717 C   0  0  1  0  0  0  0  0  0  0  0  0
    2.6023   -6.3776    5.6107 F   0  0  0  0  0  0  0  0  0  0  0  0
    4.3532   -4.9312    5.8588 F   0  0  0  0  0  0  0  0  0  0  0  0
    2.5781   -4.8328    7.2936 F   0  0  0  0  0  0  0  0  0  0  0  0
    2.9004   -3.6927    3.8871 C   0  0  0  0  0  0  0  0  0  0  0  0
    2.2741   -2.7947    3.0452 C   0  0  0  0  0  0  0  0  0  0  0  0
    0.3163   -0.7112   -1.0971 N   0  0  0  0  0  0  0  0  0  0  0  0
    1.6504   -0.7247   -1.5186 C   0  0  0  0  0  0  0  0  0  0  0  0
    2.2485   -1.9202   -1.8930 C   0  0  0  0  0  0  0  0  0  0  0  0
    3.5669   -1.9341   -2.3073 C   0  0  0  0  0  0  0  0  0  0  0  0
    4.2961   -0.7556   -2.3505 C   0  0  0  0  0  0  0  0  0  0  0  0
    5.5970   -0.7904   -2.7534 O   0  0  0  0  0  0  0  0  0  0  0  0
    6.1852    0.4568   -3.1384 C   0  0  1  0  0  0  0  0  0  0  0  0
    5.8238    1.5062   -2.0785 C   0  0  1  0  0  0  0  0  0  0  0  0
    4.3972    1.6114   -2.0202 O   0  0  0  0  0  0  0  0  0  0  0  0
    3.6988    0.4437   -1.9796 C   0  0  0  0  0  0  0  0  0  0  0  0
    2.3752    0.4582   -1.5680 C   0  0  0  0  0  0  0  0  0  0  0  0
   -0.8954   -1.0535   -2.1728 S   0  0  1  0  0  0  0  0  0  0  0  0
   -1.2812    0.5429   -2.9431 C   0  0  1  0  0  0  0  0  0  0  0  0
   -0.2906   -1.9286   -3.1150 O   0  0  0  0  0  0  0  0  0  0  0  0
   -1.9753   -1.4878   -1.3577 O   0  0  0  0  0  0  0  0  0  0  0  0
    1.6746    0.9027    0.6496 H   0  0  0  0  0  0  0  0  0  0  0  0
    0.2588    1.7131   -0.0626 H   0  0  0  0  0  0  0  0  0  0  0  0
    0.2503    1.2550    1.6574 H   0  0  0  0  0  0  0  0  0  0  0  0
   -0.1731   -0.6747    2.9054 H   0  0  0  0  0  0  0  0  0  0  0  0
   -0.5622   -2.2940    4.8199 H   0  0  0  0  0  0  0  0  0  0  0  0
    0.5581   -3.9028    6.3078 H   0  0  0  0  0  0  0  0  0  0  0  0
    3.8722   -4.0869    3.6287 H   0  0  0  0  0  0  0  0  0  0  0  0
    2.7572   -2.4837    2.1308 H   0  0  0  0  0  0  0  0  0  0  0  0
    1.6834   -2.8399   -1.8603 H   0  0  0  0  0  0  0  0  0  0  0  0
    4.0304   -2.8653   -2.5977 H   0  0  0  0  0  0  0  0  0  0  0  0
    7.2684    0.3502   -3.1957 H   0  0  0  0  0  0  0  0  0  0  0  0
    5.7937    0.7640   -4.1082 H   0  0  0  0  0  0  0  0  0  0  0  0
    6.2096    1.1959   -1.1074 H   0  0  0  0  0  0  0  0  0  0  0  0
    6.2525    2.4698   -2.3541 H   0  0  0  0  0  0  0  0  0  0  0  0
    1.9091    1.3893   -1.2813 H   0  0  0  0  0  0  0  0  0  0  0  0
   -0.3628    0.9999   -3.3115 H   0  0  0  0  0  0  0  0  0  0  0  0
   -1.9690    0.3883   -3.7744 H   0  0  0  0  0  0  0  0  0  0  0  0
   -1.7436    1.1995   -2.2062 H   0  0  0  0  0  0  0  0  0  0  0  0
  1  2  1  0
  1 32  1  1
  1 33  1  0
  1 34  1  0
  2  3  1  6
  2  4  1  0
  2 17  1  0
  4  5  2  0
  4  6  1  0
  6  7  1  0
  6 35  1  0
  7 16  2  0
  7  8  1  0
  8  9  2  0
  8 36  1  0
  9 10  1  0
  9 37  1  0
 10 11  1  0
 10 15  2  0
 11 12  1  6
 11 13  1  0
 11 14  1  0
 15 16  1  0
 15 38  1  0
 16 39  1  0
 17 18  1  0
 28 17  1  1
 18 27  2  0
 18 19  1  0
 19 20  2  0
 19 40  1  0
 20 21  1  0
 20 41  1  0
 21 26  2  0
 21 22  1  0
 22 23  1  0
 23 24  1  0
 23 42  1  6
 23 43  1  0
 24 25  1  0
 24 44  1  1
 24 45  1  0
 25 26  1  0
 26 27  1  0
 27 46  1  0
 28 29  1  0
 28 30  2  0
 28 31  2  0
 29 47  1  6
 29 48  1  0
 29 49  1  0
M  END
$$$$
