ZINC000096319974
     RDKit          3D

 48 50  0  0  0  0  0  0  0  0999 V2000
    0.0145    1.5034    0.0106 C   0  0  1  0  0  0  0  0  0  0  0  0
    0.0238   -0.0035    0.0023 C   0  0  0  0  0  0  0  0  0  0  0  0
    0.0232   -0.7852   -1.1040 C   0  0  0  0  0  0  0  0  0  0  0  0
    0.0122   -0.2206   -2.7731 S   0  0  1  0  0  0  0  0  0  0  0  0
   -0.5293   -1.2792   -3.5512 O   0  0  0  0  0  0  0  0  0  0  0  0
   -0.5402    1.0884   -2.7502 O   0  0  0  0  0  0  0  0  0  0  0  0
    1.5908   -0.0539   -3.2446 N   0  0  0  0  0  0  0  0  0  0  0  0
    2.4044    1.1621   -3.0999 C   0  0  1  0  0  0  0  0  0  0  0  0
    3.7938    0.8578   -3.6987 C   0  0  1  0  0  0  0  0  0  0  0  0
    3.5068   -0.3279   -4.6575 C   0  0  1  0  0  0  0  0  0  0  0  0
    2.4151   -1.1022   -3.8731 C   0  0  1  0  0  0  0  0  0  0  0  0
    0.0335   -2.1197   -0.6864 C   0  0  0  0  0  0  0  0  0  0  0  0
    0.0371   -3.3363   -1.5757 C   0  0  1  0  0  0  0  0  0  0  0  0
    0.0404   -2.1126    0.6925 C   0  0  0  0  0  0  0  0  0  0  0  0
    0.0521   -3.2910    1.5653 C   0  0  0  0  0  0  0  0  0  0  0  0
    0.0567   -4.4073    1.0805 O   0  0  0  0  0  0  0  0  0  0  0  0
    0.0579   -3.1378    2.9043 N   0  0  0  0  0  0  0  0  0  0  0  0
   -0.0286   -4.2581    3.7366 C   0  0  0  0  0  0  0  0  0  0  0  0
   -0.7254   -4.1822    4.9355 C   0  0  0  0  0  0  0  0  0  0  0  0
   -0.8089   -5.2907    5.7553 C   0  0  0  0  0  0  0  0  0  0  0  0
   -0.1994   -6.4748    5.3838 C   0  0  0  0  0  0  0  0  0  0  0  0
    0.4957   -6.5536    4.1906 C   0  0  0  0  0  0  0  0  0  0  0  0
    1.1589   -7.8461    3.7899 C   0  0  1  0  0  0  0  0  0  0  0  0
    0.9337   -8.8115    4.7771 F   0  0  0  0  0  0  0  0  0  0  0  0
    0.6239   -8.2878    2.5751 F   0  0  0  0  0  0  0  0  0  0  0  0
    2.5350   -7.6390    3.6456 F   0  0  0  0  0  0  0  0  0  0  0  0
    0.5774   -5.4511    3.3633 C   0  0  0  0  0  0  0  0  0  0  0  0
    0.0402   -0.7979    1.1004 N   0  0  0  0  0  0  0  0  0  0  0  0
    1.0399    1.8732    0.0025 H   0  0  0  0  0  0  0  0  0  0  0  0
   -0.5104    1.8684   -0.8722 H   0  0  0  0  0  0  0  0  0  0  0  0
   -0.4927    1.8586    0.9077 H   0  0  0  0  0  0  0  0  0  0  0  0
    1.9396    1.9858   -3.6417 H   0  0  0  0  0  0  0  0  0  0  0  0
    2.5035    1.4185   -2.0451 H   0  0  0  0  0  0  0  0  0  0  0  0
    4.1723    1.7177   -4.2513 H   0  0  0  0  0  0  0  0  0  0  0  0
    4.4939    0.5614   -2.9176 H   0  0  0  0  0  0  0  0  0  0  0  0
    3.1266    0.0273   -5.6152 H   0  0  0  0  0  0  0  0  0  0  0  0
    4.3962   -0.9427   -4.7957 H   0  0  0  0  0  0  0  0  0  0  0  0
    2.8720   -1.7383   -3.1150 H   0  0  0  0  0  0  0  0  0  0  0  0
    1.8091   -1.6986   -4.5550 H   0  0  0  0  0  0  0  0  0  0  0  0
    1.0656   -3.6231   -1.7949 H   0  0  0  0  0  0  0  0  0  0  0  0
   -0.4692   -4.1580   -1.0693 H   0  0  0  0  0  0  0  0  0  0  0  0
   -0.4825   -3.1077   -2.5062 H   0  0  0  0  0  0  0  0  0  0  0  0
    0.1221   -2.2504    3.2906 H   0  0  0  0  0  0  0  0  0  0  0  0
   -1.2012   -3.2574    5.2266 H   0  0  0  0  0  0  0  0  0  0  0  0
   -1.3506   -5.2324    6.6878 H   0  0  0  0  0  0  0  0  0  0  0  0
   -0.2659   -7.3400    6.0268 H   0  0  0  0  0  0  0  0  0  0  0  0
    1.1204   -5.5132    2.4318 H   0  0  0  0  0  0  0  0  0  0  0  0
    0.0447   -0.4911    2.0206 H   0  0  0  0  0  0  0  0  0  0  0  0
  1  2  1  0
  1 29  1  6
  1 30  1  0
  1 31  1  0
  2 28  1  0
  2  3  2  0
  3  4  1  0
  3 12  1  0
  4  5  2  0
  4  6  2  0
  4  7  1  6
  7 11  1  0
  7  8  1  0
  8  9  1  0
  8 32  1  6
  8 33  1  0
  9 10  1  0
  9 34  1  6
  9 35  1  0
 10 11  1  0
 10 36  1  6
 10 37  1  0
 11 38  1  1
 11 39  1  0
 12 13  1  0
 12 14  2  0
 13 40  1  6
 13 41  1  0
 13 42  1  0
 14 15  1  0
 14 28  1  0
 15 16  2  0
 15 17  1  0
 17 18  1  0
 17 43  1  0
 18 27  2  0
 18 19  1  0
 19 20  2  0
 19 44  1  0
 20 21  1  0
 20 45  1  0
 21 22  2  0
 21 46  1  0
 22 23  1  0
 22 27  1  0
 23 24  1  1
 23 25  1  0
 23 26  1  0
 27 47  1  0
 28 48  1  0
M  END
$$$$
