ZINC000009869104
     RDKit          3D

 55 57  0  0  1  0  0  0  0  0999 V2000
    3.6482   -8.3946    1.2663 C   0  0  1  0  0  0  0  0  0  0  0  0
    2.6712   -7.2173    1.2813 C   0  0  1  0  0  0  0  0  0  0  0  0
    2.9129   -6.3698    2.5320 C   0  0  1  0  0  0  0  0  0  0  0  0
    1.9359   -5.1925    2.5469 C   0  0  1  0  0  0  0  0  0  0  0  0
    2.1528   -4.3338    1.2993 C   0  0  1  0  0  0  0  0  0  0  0  0
    3.5275   -3.8275    1.2880 N   0  0  0  0  0  0  0  0  0  0  0  0
    3.8228   -2.6944    0.6206 C   0  0  0  0  0  0  0  0  0  0  0  0
    2.9699   -2.1424   -0.0473 O   0  0  0  0  0  0  0  0  0  0  0  0
    5.0636   -2.1732    0.6936 N   0  0  0  0  0  0  0  0  0  0  0  0
    5.3691   -0.8788    0.0684 C   0  0  1  0  0  0  0  0  0  0  0  0
    5.9608    0.0525    1.1338 C   0  0  1  0  0  0  0  0  0  0  0  0
    7.0323   -0.6632    1.8404 N   0  0  0  0  0  0  0  0  0  0  0  0
    8.5566   -0.0223    1.9311 S   0  0  1  0  0  0  0  0  0  0  0  0
    9.4389   -1.1147    2.1487 O   0  0  0  0  0  0  0  0  0  0  0  0
    8.6820    0.8713    0.8334 O   0  0  0  0  0  0  0  0  0  0  0  0
    8.6207    0.9669    3.3878 C   0  0  0  0  0  0  0  0  0  0  0  0
    8.2779    2.3048    3.3304 C   0  0  0  0  0  0  0  0  0  0  0  0
    8.3282    3.0808    4.4732 C   0  0  0  0  0  0  0  0  0  0  0  0
    8.7208    2.5188    5.6736 C   0  0  0  0  0  0  0  0  0  0  0  0
    8.7761    3.3650    6.9194 C   0  0  1  0  0  0  0  0  0  0  0  0
    7.5388    3.3177    7.5705 F   0  0  0  0  0  0  0  0  0  0  0  0
    9.7709    2.8748    7.7723 F   0  0  0  0  0  0  0  0  0  0  0  0
    9.0700    4.6879    6.5720 F   0  0  0  0  0  0  0  0  0  0  0  0
    9.0623    1.1806    5.7313 C   0  0  0  0  0  0  0  0  0  0  0  0
    9.0083    0.4036    4.5892 C   0  0  0  0  0  0  0  0  0  0  0  0
    6.7268   -1.9577    2.4656 C   0  0  1  0  0  0  0  0  0  0  0  0
    6.1337   -2.8863    1.4051 C   0  0  1  0  0  0  0  0  0  0  0  0
    1.9111   -5.1813    0.0486 C   0  0  1  0  0  0  0  0  0  0  0  0
    2.8881   -6.3586    0.0337 C   0  0  1  0  0  0  0  0  0  0  0  0
    4.6710   -8.0179    1.2579 H   0  0  0  0  0  0  0  0  0  0  0  0
    3.4936   -9.0063    2.1551 H   0  0  0  0  0  0  0  0  0  0  0  0
    3.4760   -8.9983    0.3753 H   0  0  0  0  0  0  0  0  0  0  0  0
    1.6484   -7.5940    1.2897 H   0  0  0  0  0  0  0  0  0  0  0  0
    2.7583   -6.9815    3.4208 H   0  0  0  0  0  0  0  0  0  0  0  0
    3.9357   -5.9931    2.5235 H   0  0  0  0  0  0  0  0  0  0  0  0
    0.9131   -5.5692    2.5554 H   0  0  0  0  0  0  0  0  0  0  0  0
    2.1081   -4.5887    3.4380 H   0  0  0  0  0  0  0  0  0  0  0  0
    1.4568   -3.4950    1.3100 H   0  0  0  0  0  0  0  0  0  0  0  0
    4.2252   -4.3078    1.7608 H   0  0  0  0  0  0  0  0  0  0  0  0
    6.0922   -1.0219   -0.7346 H   0  0  0  0  0  0  0  0  0  0  0  0
    4.4549   -0.4414   -0.3328 H   0  0  0  0  0  0  0  0  0  0  0  0
    6.3691    0.9428    0.6554 H   0  0  0  0  0  0  0  0  0  0  0  0
    5.1832    0.3388    1.8420 H   0  0  0  0  0  0  0  0  0  0  0  0
    7.9711    2.7439    2.3926 H   0  0  0  0  0  0  0  0  0  0  0  0
    8.0610    4.1263    4.4282 H   0  0  0  0  0  0  0  0  0  0  0  0
    9.3687    0.7414    6.6692 H   0  0  0  0  0  0  0  0  0  0  0  0
    9.2751   -0.6419    4.6343 H   0  0  0  0  0  0  0  0  0  0  0  0
    7.6410   -2.3950    2.8669 H   0  0  0  0  0  0  0  0  0  0  0  0
    6.0038   -1.8145    3.2686 H   0  0  0  0  0  0  0  0  0  0  0  0
    5.7258   -3.7760    1.8847 H   0  0  0  0  0  0  0  0  0  0  0  0
    6.9095   -3.1735    0.6952 H   0  0  0  0  0  0  0  0  0  0  0  0
    0.8883   -5.5580    0.0571 H   0  0  0  0  0  0  0  0  0  0  0  0
    2.0657   -4.5695   -0.8402 H   0  0  0  0  0  0  0  0  0  0  0  0
    3.9109   -5.9819    0.0252 H   0  0  0  0  0  0  0  0  0  0  0  0
    2.7159   -6.9624   -0.8574 H   0  0  0  0  0  0  0  0  0  0  0  0
  1  2  1  0
  1 30  1  6
  1 31  1  0
  1 32  1  0
  2 29  1  0
  2  3  1  0
  2 33  1  1
  3  4  1  0
  3 34  1  1
  3 35  1  0
  4  5  1  0
  4 36  1  1
  4 37  1  0
  5  6  1  0
  5 28  1  0
  5 38  1  1
  6  7  1  0
  6 39  1  0
  7  8  2  0
  7  9  1  0
  9 27  1  0
  9 10  1  0
 10 11  1  0
 10 40  1  6
 10 41  1  0
 11 12  1  0
 11 42  1  6
 11 43  1  0
 13 12  1  6
 12 26  1  0
 13 14  2  0
 13 15  2  0
 13 16  1  0
 16 25  2  0
 16 17  1  0
 17 18  2  0
 17 44  1  0
 18 19  1  0
 18 45  1  0
 19 20  1  0
 19 24  2  0
 20 21  1  1
 20 22  1  0
 20 23  1  0
 24 25  1  0
 24 46  1  0
 25 47  1  0
 26 27  1  0
 26 48  1  1
 26 49  1  0
 27 50  1  1
 27 51  1  0
 28 29  1  0
 28 52  1  1
 28 53  1  0
 29 54  1  6
 29 55  1  0
M  END
$$$$
