ZINC000036885571
     RDKit          3D

 38 39  0  0  0  0  0  0  0  0999 V2000
   -0.0187    1.5258    0.0104 C   0  0  1  0  0  0  0  0  0  0  0  0
    0.0021   -0.0041    0.0020 C   0  0  1  0  0  0  0  0  0  0  0  0
    0.7309   -0.5033    1.2229 C   0  0  0  0  0  0  0  0  0  0  0  0
    2.0970   -0.7095    1.1762 C   0  0  0  0  0  0  0  0  0  0  0  0
    2.7656   -1.1675    2.2961 C   0  0  0  0  0  0  0  0  0  0  0  0
    2.0682   -1.4187    3.4629 C   0  0  0  0  0  0  0  0  0  0  0  0
    2.9203   -2.0029    4.8902 S   0  0  1  0  0  0  0  0  0  0  0  0
    1.9540   -2.6726    5.6883 O   0  0  0  0  0  0  0  0  0  0  0  0
    4.1080   -2.6265    4.4212 O   0  0  0  0  0  0  0  0  0  0  0  0
    3.3996   -0.6735    5.7533 N   0  0  0  0  0  0  0  0  0  0  0  0
    2.5183   -0.1088    6.7783 C   0  0  1  0  0  0  0  0  0  0  0  0
    2.8902   -0.6714    8.1260 C   0  0  0  0  0  0  0  0  0  0  0  0
    3.8064   -1.4700    8.2214 O   0  0  0  0  0  0  0  0  0  0  0  0
    2.2747   -0.3279    9.1209 O   0  0  0  0  0  0  0  0  0  0  0  0
    4.7050   -0.0620    5.4920 C   0  0  1  0  0  0  0  0  0  0  0  0
    4.5381    1.0935    4.5030 C   0  0  1  0  0  0  0  0  0  0  0  0
    4.8801    2.5007    4.9966 C   0  0  1  0  0  0  0  0  0  0  0  0
    5.8079    1.7898    4.0094 C   0  0  1  0  0  0  0  0  0  0  0  0
    0.7023   -1.2112    3.5100 C   0  0  0  0  0  0  0  0  0  0  0  0
    0.0343   -0.7496    2.3912 C   0  0  0  0  0  0  0  0  0  0  0  0
    1.0039    1.9031    0.0027 H   0  0  0  0  0  0  0  0  0  0  0  0
   -0.5459    1.8868   -0.8726 H   0  0  0  0  0  0  0  0  0  0  0  0
   -0.5289    1.8773    0.9072 H   0  0  0  0  0  0  0  0  0  0  0  0
   -1.0205   -0.3814    0.0098 H   0  0  0  0  0  0  0  0  0  0  0  0
    0.5123   -0.3556   -0.8948 H   0  0  0  0  0  0  0  0  0  0  0  0
    2.6419   -0.5132    0.2646 H   0  0  0  0  0  0  0  0  0  0  0  0
    3.8328   -1.3293    2.2593 H   0  0  0  0  0  0  0  0  0  0  0  0
    2.6279    0.9756    6.7945 H   0  0  0  0  0  0  0  0  0  0  0  0
    1.4840   -0.3660    6.5500 H   0  0  0  0  0  0  0  0  0  0  0  0
    5.1226    0.3159    6.4252 H   0  0  0  0  0  0  0  0  0  0  0  0
    5.3776   -0.8082    5.0688 H   0  0  0  0  0  0  0  0  0  0  0  0
    3.7125    0.9937    3.7984 H   0  0  0  0  0  0  0  0  0  0  0  0
    4.2793    3.3271    4.6169 H   0  0  0  0  0  0  0  0  0  0  0  0
    5.2239    2.6034    6.0259 H   0  0  0  0  0  0  0  0  0  0  0  0
    6.7622    1.4247    4.3892 H   0  0  0  0  0  0  0  0  0  0  0  0
    5.8175    2.1485    2.9802 H   0  0  0  0  0  0  0  0  0  0  0  0
    0.1575   -1.4071    4.4217 H   0  0  0  0  0  0  0  0  0  0  0  0
   -1.0328   -0.5874    2.4281 H   0  0  0  0  0  0  0  0  0  0  0  0
  1  2  1  0
  1 21  1  6
  1 22  1  0
  1 23  1  0
  2  3  1  0
  2 24  1  1
  2 25  1  0
  3 20  2  0
  3  4  1  0
  4  5  2  0
  4 26  1  0
  5  6  1  0
  5 27  1  0
  6  7  1  0
  6 19  2  0
  7  8  2  0
  7  9  2  0
  7 10  1  1
 10 11  1  0
 10 15  1  0
 11 12  1  0
 11 28  1  1
 11 29  1  0
 12 13  2  0
 12 14  1  0
 15 16  1  0
 15 30  1  1
 15 31  1  0
 16 18  1  0
 16 17  1  0
 16 32  1  6
 17 18  1  0
 17 33  1  6
 17 34  1  0
 18 35  1  1
 18 36  1  0
 19 20  1  0
 19 37  1  0
 20 38  1  0
M  END
$$$$
