ZINC000017301920
     RDKit          3D

 52 54  0  0  0  0  0  0  0  0999 V2000
    0.0155    1.5427    0.0437 C   0  0  1  0  0  0  0  0  0  0  0  0
    0.0408    0.0129    0.0345 C   0  0  1  0  0  0  0  0  0  0  0  0
   -1.3321   -0.4982    0.0351 N   0  0  0  0  0  0  0  0  0  0  0  0
   -2.0605   -0.6427   -1.2278 C   0  0  1  0  0  0  0  0  0  0  0  0
   -1.7149   -1.9903   -1.8645 C   0  0  1  0  0  0  0  0  0  0  0  0
   -2.0607   -0.9127    1.4632 S   0  0  1  0  0  0  0  0  0  0  0  0
   -3.0831   -1.8440    1.1366 O   0  0  0  0  0  0  0  0  0  0  0  0
   -1.0133   -1.1983    2.3801 O   0  0  0  0  0  0  0  0  0  0  0  0
   -2.8748    0.5271    2.0706 C   0  0  0  0  0  0  0  0  0  0  0  0
   -2.2010    1.4041    2.8998 C   0  0  0  0  0  0  0  0  0  0  0  0
   -2.8396    2.5337    3.3763 C   0  0  0  0  0  0  0  0  0  0  0  0
   -4.1520    2.7865    3.0231 C   0  0  0  0  0  0  0  0  0  0  0  0
   -4.8484    4.0177    3.5430 C   0  0  1  0  0  0  0  0  0  0  0  0
   -4.6313    5.1765    2.5678 C   0  0  1  0  0  0  0  0  0  0  0  0
   -5.3277    6.4077    3.0876 C   0  0  0  0  0  0  0  0  0  0  0  0
   -5.9377    6.3628    4.1351 O   0  0  0  0  0  0  0  0  0  0  0  0
   -5.2728    7.5587    2.3886 N   0  0  0  0  0  0  0  0  0  0  0  0
   -5.9991    8.6761    2.8208 C   0  0  0  0  0  0  0  0  0  0  0  0
   -6.5634    9.5390    1.8916 C   0  0  0  0  0  0  0  0  0  0  0  0
   -7.2798   10.6420    2.3164 C   0  0  0  0  0  0  0  0  0  0  0  0
   -7.4367   10.8896    3.6702 C   0  0  0  0  0  0  0  0  0  0  0  0
   -8.0846   11.8901    4.3374 O   0  0  0  0  0  0  0  0  0  0  0  0
   -8.2575   11.4059    5.6823 C   0  0  1  0  0  0  0  0  0  0  0  0
   -7.1657   10.4837    5.8570 O   0  0  0  0  0  0  0  0  0  0  0  0
   -6.8718   10.0250    4.6053 C   0  0  0  0  0  0  0  0  0  0  0  0
   -6.1593    8.9172    4.1788 C   0  0  0  0  0  0  0  0  0  0  0  0
   -4.8254    1.9102    2.1928 C   0  0  0  0  0  0  0  0  0  0  0  0
   -4.1855    0.7826    1.7133 C   0  0  0  0  0  0  0  0  0  0  0  0
    1.0370    1.9230    0.0432 H   0  0  0  0  0  0  0  0  0  0  0  0
   -0.5066    1.9027   -0.8428 H   0  0  0  0  0  0  0  0  0  0  0  0
   -0.5019    1.8921    0.9371 H   0  0  0  0  0  0  0  0  0  0  0  0
    0.5583   -0.3366   -0.8589 H   0  0  0  0  0  0  0  0  0  0  0  0
    0.5629   -0.3471    0.9210 H   0  0  0  0  0  0  0  0  0  0  0  0
   -3.1325   -0.5955   -1.0364 H   0  0  0  0  0  0  0  0  0  0  0  0
   -1.7765    0.1627   -1.9052 H   0  0  0  0  0  0  0  0  0  0  0  0
   -1.9989   -2.7957   -1.1872 H   0  0  0  0  0  0  0  0  0  0  0  0
   -2.2568   -2.0978   -2.8042 H   0  0  0  0  0  0  0  0  0  0  0  0
   -0.6429   -2.0375   -2.0559 H   0  0  0  0  0  0  0  0  0  0  0  0
   -1.1756    1.2066    3.1757 H   0  0  0  0  0  0  0  0  0  0  0  0
   -2.3134    3.2186    4.0247 H   0  0  0  0  0  0  0  0  0  0  0  0
   -5.9157    3.8184    3.6386 H   0  0  0  0  0  0  0  0  0  0  0  0
   -4.4393    4.2821    4.5181 H   0  0  0  0  0  0  0  0  0  0  0  0
   -3.5640    5.3758    2.4721 H   0  0  0  0  0  0  0  0  0  0  0  0
   -5.0404    4.9121    1.5926 H   0  0  0  0  0  0  0  0  0  0  0  0
   -4.7305    7.6135    1.5862 H   0  0  0  0  0  0  0  0  0  0  0  0
   -6.4422    9.3485    0.8354 H   0  0  0  0  0  0  0  0  0  0  0  0
   -7.7177   11.3122    1.5915 H   0  0  0  0  0  0  0  0  0  0  0  0
   -8.1843   12.2257    6.3968 H   0  0  0  0  0  0  0  0  0  0  0  0
   -9.2131   10.8917    5.7843 H   0  0  0  0  0  0  0  0  0  0  0  0
   -5.7247    8.2431    4.9021 H   0  0  0  0  0  0  0  0  0  0  0  0
   -5.8506    2.1079    1.9166 H   0  0  0  0  0  0  0  0  0  0  0  0
   -4.7116    0.0979    1.0645 H   0  0  0  0  0  0  0  0  0  0  0  0
  1  2  1  0
  1 29  1  1
  1 30  1  0
  1 31  1  0
  2  3  1  0
  2 32  1  6
  2 33  1  0
  3  4  1  0
  6  3  1  6
  4  5  1  0
  4 34  1  1
  4 35  1  0
  5 36  1  1
  5 37  1  0
  5 38  1  0
  6  7  2  0
  6  8  2  0
  6  9  1  0
  9 28  2  0
  9 10  1  0
 10 11  2  0
 10 39  1  0
 11 12  1  0
 11 40  1  0
 12 13  1  0
 12 27  2  0
 13 14  1  0
 13 41  1  1
 13 42  1  0
 14 15  1  0
 14 43  1  6
 14 44  1  0
 15 16  2  0
 15 17  1  0
 17 18  1  0
 17 45  1  0
 18 26  2  0
 18 19  1  0
 19 20  2  0
 19 46  1  0
 20 21  1  0
 20 47  1  0
 21 25  2  0
 21 22  1  0
 22 23  1  0
 23 24  1  0
 23 48  1  1
 23 49  1  0
 24 25  1  0
 25 26  1  0
 26 50  1  0
 27 28  1  0
 27 51  1  0
 28 52  1  0
M  END
$$$$
