ZINC000032909194
     RDKit          3D

 44 46  0  0  1  0  0  0  0  0999 V2000
    3.9246   -9.6722    2.6274 C   0  0  1  0  0  0  0  0  0  0  0  0
    3.8572   -8.3063    1.9943 C   0  0  0  0  0  0  0  0  0  0  0  0
    4.8468   -7.7237    1.3156 C   0  0  0  0  0  0  0  0  0  0  0  0
    4.5536   -6.4635    0.8236 C   0  0  0  0  0  0  0  0  0  0  0  0
    3.3260   -6.0227    1.1028 C   0  0  0  0  0  0  0  0  0  0  0  0
    2.6703   -4.4632    0.6103 S   0  0  1  0  0  0  0  0  0  0  0  0
    1.5496   -4.2164    1.4483 O   0  0  0  0  0  0  0  0  0  0  0  0
    3.7761   -3.5765    0.5102 O   0  0  0  0  0  0  0  0  0  0  0  0
    2.0756   -4.6441   -0.9246 N   0  0  0  0  0  0  0  0  0  0  0  0
    0.7343   -5.1474   -1.2726 C   0  0  1  0  0  0  0  0  0  0  0  0
    0.4420   -4.5598   -2.6758 C   0  0  1  0  0  0  0  0  0  0  0  0
    1.8423   -4.6288   -3.3403 C   0  0  1  0  0  0  0  0  0  0  0  0
    2.7954   -4.3234   -2.1658 C   0  0  1  0  0  0  0  0  0  0  0  0
    3.6881   -4.9443   -2.2417 H   0  0  0  0  0  0  0  0  0  0  0  0
    3.1814   -2.8668   -2.1844 C   0  0  0  0  0  0  0  0  0  0  0  0
    2.6032   -2.0770   -1.4682 O   0  0  0  0  0  0  0  0  0  0  0  0
    4.1692   -2.4417   -2.9969 N   0  0  0  0  0  0  0  0  0  0  0  0
    4.4691   -1.0775   -3.0791 C   0  0  0  0  0  0  0  0  0  0  0  0
    5.7748   -0.6648   -3.3101 C   0  0  0  0  0  0  0  0  0  0  0  0
    6.0676    0.6826   -3.3907 C   0  0  0  0  0  0  0  0  0  0  0  0
    5.0622    1.6202   -3.2412 C   0  0  0  0  0  0  0  0  0  0  0  0
    5.3853    3.0895   -3.3293 C   0  0  1  0  0  0  0  0  0  0  0  0
    5.2646    3.5148   -4.6566 F   0  0  0  0  0  0  0  0  0  0  0  0
    4.4964    3.8114   -2.5256 F   0  0  0  0  0  0  0  0  0  0  0  0
    6.6949    3.3063   -2.8874 F   0  0  0  0  0  0  0  0  0  0  0  0
    3.7610    1.2125   -3.0116 C   0  0  0  0  0  0  0  0  0  0  0  0
    3.4607   -0.1335   -2.9356 C   0  0  0  0  0  0  0  0  0  0  0  0
    2.4592   -7.2397    2.0308 S   0  0  0  0  0  0  0  0  0  0  0  0
    2.9737   -9.8958    3.1111 H   0  0  0  0  0  0  0  0  0  0  0  0
    4.1261  -10.4191    1.8595 H   0  0  0  0  0  0  0  0  0  0  0  0
    4.7227   -9.6897    3.3696 H   0  0  0  0  0  0  0  0  0  0  0  0
    5.8043   -8.1991    1.1619 H   0  0  0  0  0  0  0  0  0  0  0  0
    5.2651   -5.8811    0.2570 H   0  0  0  0  0  0  0  0  0  0  0  0
    0.7359   -6.2368   -1.3104 H   0  0  0  0  0  0  0  0  0  0  0  0
   -0.0026   -4.7931   -0.5519 H   0  0  0  0  0  0  0  0  0  0  0  0
   -0.2773   -5.1759   -3.2153 H   0  0  0  0  0  0  0  0  0  0  0  0
    0.0944   -3.5292   -2.6031 H   0  0  0  0  0  0  0  0  0  0  0  0
    2.0288   -5.6238   -3.7444 H   0  0  0  0  0  0  0  0  0  0  0  0
    1.9377   -3.8714   -4.1184 H   0  0  0  0  0  0  0  0  0  0  0  0
    4.6722   -3.0816   -3.5246 H   0  0  0  0  0  0  0  0  0  0  0  0
    6.5605   -1.3966   -3.4262 H   0  0  0  0  0  0  0  0  0  0  0  0
    7.0828    1.0042   -3.5703 H   0  0  0  0  0  0  0  0  0  0  0  0
    2.9781    1.9472   -2.8953 H   0  0  0  0  0  0  0  0  0  0  0  0
    2.4443   -0.4513   -2.7562 H   0  0  0  0  0  0  0  0  0  0  0  0
  1  2  1  0
  1 29  1  1
  1 30  1  0
  1 31  1  0
  2 28  1  0
  2  3  2  0
  3  4  1  0
  3 32  1  0
  4  5  2  0
  4 33  1  0
  5  6  1  0
  5 28  1  0
  6  7  2  0
  6  8  2  0
  6  9  1  6
  9 13  1  0
  9 10  1  0
 10 11  1  0
 10 34  1  6
 10 35  1  0
 11 12  1  0
 11 36  1  6
 11 37  1  0
 12 13  1  0
 12 38  1  6
 12 39  1  0
 13 14  1  6
 13 15  1  0
 15 16  2  0
 15 17  1  0
 17 18  1  0
 17 40  1  0
 18 27  2  0
 18 19  1  0
 19 20  2  0
 19 41  1  0
 20 21  1  0
 20 42  1  0
 21 22  1  0
 21 26  2  0
 22 23  1  6
 22 24  1  0
 22 25  1  0
 26 27  1  0
 26 43  1  0
 27 44  1  0
M  END
$$$$
