ZINC000006946237
     RDKit          3D

 52 53  0  0  1  0  0  0  0  0999 V2000
   -0.0187    1.5258    0.0104 C   0  0  1  0  0  0  0  0  0  0  0  0
    0.0021   -0.0041    0.0020 C   0  0  1  0  0  0  0  0  0  0  0  0
    0.7421   -0.5109    1.2415 C   0  0  1  0  0  0  0  0  0  0  0  0
    0.7628   -2.0407    1.2331 C   0  0  2  0  0  0  0  0  0  0  0  0
   -0.2567   -2.4175    1.1513 H   0  0  0  0  0  0  0  0  0  0  0  0
    1.3918   -2.5494    2.5318 C   0  0  1  0  0  0  0  0  0  0  0  0
    1.5508   -2.5122    0.0916 N   0  0  0  0  0  0  0  0  0  0  0  0
    1.3205   -3.7345   -0.4273 C   0  0  0  0  0  0  0  0  0  0  0  0
    0.4611   -4.4442    0.0507 O   0  0  0  0  0  0  0  0  0  0  0  0
    2.1311   -4.2195   -1.6016 C   0  0  1  0  0  0  0  0  0  0  0  0
    1.6924   -5.5665   -1.9748 N   0  0  0  0  0  0  0  0  0  0  0  0
    0.5477   -5.7417   -2.8721 C   0  0  1  0  0  0  0  0  0  0  0  0
    1.0128   -5.6533   -4.3029 C   0  0  0  0  0  0  0  0  0  0  0  0
    1.0416   -4.4300   -4.9459 C   0  0  0  0  0  0  0  0  0  0  0  0
    1.4682   -4.3489   -6.2583 C   0  0  0  0  0  0  0  0  0  0  0  0
    1.8664   -5.4911   -6.9275 C   0  0  0  0  0  0  0  0  0  0  0  0
    1.8385   -6.7143   -6.2841 C   0  0  0  0  0  0  0  0  0  0  0  0
    1.4159   -6.7947   -4.9704 C   0  0  0  0  0  0  0  0  0  0  0  0
    2.4905   -6.8911   -1.3824 S   0  0  1  0  0  0  0  0  0  0  0  0
    2.3664   -7.9079   -2.3672 O   0  0  0  0  0  0  0  0  0  0  0  0
    3.7432   -6.4230   -0.9020 O   0  0  0  0  0  0  0  0  0  0  0  0
    1.5950   -7.4521    0.0276 C   0  0  0  0  0  0  0  0  0  0  0  0
    1.8994   -6.9567    1.2817 C   0  0  0  0  0  0  0  0  0  0  0  0
    1.1969   -7.3968    2.3879 C   0  0  0  0  0  0  0  0  0  0  0  0
    0.1896   -8.3320    2.2399 C   0  0  0  0  0  0  0  0  0  0  0  0
   -0.1154   -8.8266    0.9856 C   0  0  0  0  0  0  0  0  0  0  0  0
    0.5843   -8.3833   -0.1211 C   0  0  0  0  0  0  0  0  0  0  0  0
    1.0039    1.9031    0.0027 H   0  0  0  0  0  0  0  0  0  0  0  0
   -0.5459    1.8868   -0.8726 H   0  0  0  0  0  0  0  0  0  0  0  0
   -0.5289    1.8773    0.9072 H   0  0  0  0  0  0  0  0  0  0  0  0
   -1.0205   -0.3814    0.0098 H   0  0  0  0  0  0  0  0  0  0  0  0
    0.5123   -0.3556   -0.8948 H   0  0  0  0  0  0  0  0  0  0  0  0
    1.7647   -0.1336    1.2338 H   0  0  0  0  0  0  0  0  0  0  0  0
    0.2319   -0.1594    2.1383 H   0  0  0  0  0  0  0  0  0  0  0  0
    0.8055   -2.1987    3.3812 H   0  0  0  0  0  0  0  0  0  0  0  0
    1.4065   -3.6393    2.5258 H   0  0  0  0  0  0  0  0  0  0  0  0
    2.4113   -2.1727    2.6137 H   0  0  0  0  0  0  0  0  0  0  0  0
    2.2382   -1.9445   -0.2908 H   0  0  0  0  0  0  0  0  0  0  0  0
    1.9885   -3.5441   -2.4452 H   0  0  0  0  0  0  0  0  0  0  0  0
    3.1863   -4.2433   -1.3297 H   0  0  0  0  0  0  0  0  0  0  0  0
    0.0948   -6.7176   -2.6970 H   0  0  0  0  0  0  0  0  0  0  0  0
   -0.1875   -4.9602   -2.6801 H   0  0  0  0  0  0  0  0  0  0  0  0
    0.7305   -3.5377   -4.4231 H   0  0  0  0  0  0  0  0  0  0  0  0
    1.4901   -3.3932   -6.7609 H   0  0  0  0  0  0  0  0  0  0  0  0
    2.1990   -5.4278   -7.9530 H   0  0  0  0  0  0  0  0  0  0  0  0
    2.1493   -7.6067   -6.8070 H   0  0  0  0  0  0  0  0  0  0  0  0
    1.3941   -7.7504   -4.4677 H   0  0  0  0  0  0  0  0  0  0  0  0
    2.6863   -6.2261    1.3973 H   0  0  0  0  0  0  0  0  0  0  0  0
    1.4351   -7.0103    3.3678 H   0  0  0  0  0  0  0  0  0  0  0  0
   -0.3588   -8.6763    3.1042 H   0  0  0  0  0  0  0  0  0  0  0  0
   -0.9021   -9.5575    0.8700 H   0  0  0  0  0  0  0  0  0  0  0  0
    0.3460   -8.7698   -1.1011 H   0  0  0  0  0  0  0  0  0  0  0  0
  1  2  1  0
  1 28  1  6
  1 29  1  0
  1 30  1  0
  2  3  1  0
  2 31  1  1
  2 32  1  0
  3  4  1  0
  3 33  1  6
  3 34  1  0
  4  5  1  6
  4  6  1  0
  4  7  1  0
  6 35  1  1
  6 36  1  0
  6 37  1  0
  7  8  1  0
  7 38  1  0
  8  9  2  0
  8 10  1  0
 10 11  1  0
 10 39  1  6
 10 40  1  0
 11 12  1  0
 19 11  1  6
 12 13  1  0
 12 41  1  6
 12 42  1  0
 13 18  2  0
 13 14  1  0
 14 15  2  0
 14 43  1  0
 15 16  1  0
 15 44  1  0
 16 17  2  0
 16 45  1  0
 17 18  1  0
 17 46  1  0
 18 47  1  0
 19 20  2  0
 19 21  2  0
 19 22  1  0
 22 27  2  0
 22 23  1  0
 23 24  2  0
 23 48  1  0
 24 25  1  0
 24 49  1  0
 25 26  2  0
 25 50  1  0
 26 27  1  0
 26 51  1  0
 27 52  1  0
M  END
$$$$
