ZINC000013038404
     RDKit          3D

 58 60  0  0  0  0  0  0  0  0999 V2000
    3.6150   -1.0808   -0.1119 C   0  0  1  0  0  0  0  0  0  0  0  0
    3.4808   -1.8831   -1.4078 C   0  0  1  0  0  0  0  0  0  0  0  0
    4.8151   -1.8700   -2.1563 C   0  0  1  0  0  0  0  0  0  0  0  0
    3.1018   -3.3047   -1.0814 C   0  0  0  0  0  0  0  0  0  0  0  0
    3.9783   -4.1104   -0.3819 C   0  0  0  0  0  0  0  0  0  0  0  0
    3.6315   -5.4154   -0.0824 C   0  0  0  0  0  0  0  0  0  0  0  0
    2.4067   -5.9173   -0.4817 C   0  0  0  0  0  0  0  0  0  0  0  0
    1.5252   -5.1163   -1.1813 C   0  0  0  0  0  0  0  0  0  0  0  0
    1.8683   -3.8041   -1.4790 C   0  0  0  0  0  0  0  0  0  0  0  0
    0.9774   -2.9899   -2.1871 N   0  0  0  0  0  0  0  0  0  0  0  0
    0.1236   -3.5378   -3.0744 C   0  0  0  0  0  0  0  0  0  0  0  0
    0.0628   -4.7433   -3.1927 O   0  0  0  0  0  0  0  0  0  0  0  0
   -0.7557   -2.6524   -3.9194 C   0  0  1  0  0  0  0  0  0  0  0  0
   -1.5712   -3.4836   -4.8149 N   0  0  0  0  0  0  0  0  0  0  0  0
   -2.4405   -4.3866   -4.0488 C   0  0  1  0  0  0  0  0  0  0  0  0
   -3.3989   -5.1023   -5.0067 C   0  0  1  0  0  0  0  0  0  0  0  0
   -2.6066   -5.7497   -6.0631 N   0  0  0  0  0  0  0  0  0  0  0  0
   -2.8270   -7.3491   -6.4315 S   0  0  1  0  0  0  0  0  0  0  0  0
   -1.6185   -7.7926   -7.0332 O   0  0  0  0  0  0  0  0  0  0  0  0
   -3.3864   -7.9541   -5.2738 O   0  0  0  0  0  0  0  0  0  0  0  0
   -4.0648   -7.4304   -7.6828 C   0  0  0  0  0  0  0  0  0  0  0  0
   -5.3976   -7.5339   -7.3309 C   0  0  0  0  0  0  0  0  0  0  0  0
   -6.3688   -7.5977   -8.3126 C   0  0  0  0  0  0  0  0  0  0  0  0
   -6.0072   -7.5573   -9.6462 C   0  0  0  0  0  0  0  0  0  0  0  0
   -7.0658   -7.6273  -10.7164 C   0  0  1  0  0  0  0  0  0  0  0  0
   -7.4932   -6.3338  -11.0349 F   0  0  0  0  0  0  0  0  0  0  0  0
   -6.5352   -8.2375  -11.8581 F   0  0  0  0  0  0  0  0  0  0  0  0
   -8.1519   -8.3756  -10.2498 F   0  0  0  0  0  0  0  0  0  0  0  0
   -4.6745   -7.4524   -9.9981 C   0  0  0  0  0  0  0  0  0  0  0  0
   -3.7036   -7.3848   -9.0164 C   0  0  0  0  0  0  0  0  0  0  0  0
   -1.6136   -4.9389   -6.7841 C   0  0  1  0  0  0  0  0  0  0  0  0
   -0.7255   -4.2297   -5.7562 C   0  0  1  0  0  0  0  0  0  0  0  0
    3.8891   -0.0525   -0.3480 H   0  0  0  0  0  0  0  0  0  0  0  0
    2.6644   -1.0901    0.4213 H   0  0  0  0  0  0  0  0  0  0  0  0
    4.3872   -1.5280    0.5140 H   0  0  0  0  0  0  0  0  0  0  0  0
    2.7086   -1.4358   -2.0337 H   0  0  0  0  0  0  0  0  0  0  0  0
    5.5872   -2.3172   -1.5304 H   0  0  0  0  0  0  0  0  0  0  0  0
    4.7194   -2.4415   -3.0795 H   0  0  0  0  0  0  0  0  0  0  0  0
    5.0892   -0.8417   -2.3923 H   0  0  0  0  0  0  0  0  0  0  0  0
    4.9358   -3.7213   -0.0686 H   0  0  0  0  0  0  0  0  0  0  0  0
    4.3191   -6.0438    0.4642 H   0  0  0  0  0  0  0  0  0  0  0  0
    2.1389   -6.9368   -0.2466 H   0  0  0  0  0  0  0  0  0  0  0  0
    0.5687   -5.5090   -1.4932 H   0  0  0  0  0  0  0  0  0  0  0  0
    0.9745   -2.0312   -2.0395 H   0  0  0  0  0  0  0  0  0  0  0  0
   -1.4087   -2.0658   -3.2732 H   0  0  0  0  0  0  0  0  0  0  0  0
   -0.1336   -1.9820   -4.5123 H   0  0  0  0  0  0  0  0  0  0  0  0
   -1.8299   -5.1236   -3.5272 H   0  0  0  0  0  0  0  0  0  0  0  0
   -3.0145   -3.8101   -3.3233 H   0  0  0  0  0  0  0  0  0  0  0  0
   -3.9669   -5.8558   -4.4611 H   0  0  0  0  0  0  0  0  0  0  0  0
   -4.0803   -4.3775   -5.4522 H   0  0  0  0  0  0  0  0  0  0  0  0
   -5.6801   -7.5654   -6.2890 H   0  0  0  0  0  0  0  0  0  0  0  0
   -7.4100   -7.6793   -8.0376 H   0  0  0  0  0  0  0  0  0  0  0  0
   -4.3920   -7.4205  -11.0400 H   0  0  0  0  0  0  0  0  0  0  0  0
   -2.6624   -7.3028   -9.2913 H   0  0  0  0  0  0  0  0  0  0  0  0
   -1.0012   -5.5845   -7.4136 H   0  0  0  0  0  0  0  0  0  0  0  0
   -2.1234   -4.1984   -7.4004 H   0  0  0  0  0  0  0  0  0  0  0  0
   -0.0556   -3.5394   -6.2691 H   0  0  0  0  0  0  0  0  0  0  0  0
   -0.1387   -4.9689   -5.2109 H   0  0  0  0  0  0  0  0  0  0  0  0
  1  2  1  0
  1 33  1  6
  1 34  1  0
  1 35  1  0
  2  3  1  0
  2  4  1  0
  2 36  1  6
  3 37  1  1
  3 38  1  0
  3 39  1  0
  4  9  2  0
  4  5  1  0
  5  6  2  0
  5 40  1  0
  6  7  1  0
  6 41  1  0
  7  8  2  0
  7 42  1  0
  8  9  1  0
  8 43  1  0
  9 10  1  0
 10 11  1  0
 10 44  1  0
 11 12  2  0
 11 13  1  0
 13 14  1  0
 13 45  1  1
 13 46  1  0
 14 32  1  0
 14 15  1  0
 15 16  1  0
 15 47  1  1
 15 48  1  0
 16 17  1  0
 16 49  1  1
 16 50  1  0
 18 17  1  1
 17 31  1  0
 18 19  2  0
 18 20  2  0
 18 21  1  0
 21 30  2  0
 21 22  1  0
 22 23  2  0
 22 51  1  0
 23 24  1  0
 23 52  1  0
 24 25  1  0
 24 29  2  0
 25 26  1  6
 25 27  1  0
 25 28  1  0
 29 30  1  0
 29 53  1  0
 30 54  1  0
 31 32  1  0
 31 55  1  6
 31 56  1  0
 32 57  1  6
 32 58  1  0
M  END
$$$$
