ZINC000357228869
     RDKit          3D

 44 45  0  0  0  0  0  0  0  0999 V2000
   -0.0187    1.5258    0.0104 C   0  0  1  0  0  0  0  0  0  0  0  0
    0.0021   -0.0041    0.0020 C   0  0  1  0  0  0  0  0  0  0  0  0
    0.6878   -0.4765   -1.2033 N   0  0  0  0  0  0  0  0  0  0  0  0
    2.1478   -0.5966   -1.2159 C   0  0  1  0  0  0  0  0  0  0  0  0
    2.5532   -1.9514   -0.6319 C   0  0  1  0  0  0  0  0  0  0  0  0
   -0.1875   -0.8749   -2.5515 S   0  0  1  0  0  0  0  0  0  0  0  0
    0.6166   -1.7761   -3.3001 O   0  0  0  0  0  0  0  0  0  0  0  0
   -1.4970   -1.1925   -2.1004 O   0  0  0  0  0  0  0  0  0  0  0  0
   -0.3375    0.5853   -3.5262 C   0  0  0  0  0  0  0  0  0  0  0  0
   -1.4064    1.4399   -3.3289 C   0  0  0  0  0  0  0  0  0  0  0  0
   -1.5263    2.5854   -4.0918 C   0  0  0  0  0  0  0  0  0  0  0  0
   -0.5728    2.8781   -5.0561 C   0  0  0  0  0  0  0  0  0  0  0  0
   -0.6883    4.0045   -5.8076 O   0  0  0  0  0  0  0  0  0  0  0  0
    0.3301    4.2420   -6.7815 C   0  0  1  0  0  0  0  0  0  0  0  0
    0.0367    5.5269   -7.5122 C   0  0  0  0  0  0  0  0  0  0  0  0
   -0.9477    6.1755   -7.2270 O   0  0  0  0  0  0  0  0  0  0  0  0
    0.8681    5.9553   -8.4825 N   0  0  0  0  0  0  0  0  0  0  0  0
    0.5828    7.2044   -9.1929 C   0  0  1  0  0  0  0  0  0  0  0  0
    1.7526    8.1587   -9.4416 C   0  0  1  0  0  0  0  0  0  0  0  0
    1.1552    7.3618  -10.6030 C   0  0  1  0  0  0  0  0  0  0  0  0
    0.4989    2.0192   -5.2518 C   0  0  0  0  0  0  0  0  0  0  0  0
    0.6169    0.8775   -4.4830 C   0  0  0  0  0  0  0  0  0  0  0  0
    1.0039    1.9031    0.0027 H   0  0  0  0  0  0  0  0  0  0  0  0
   -0.5459    1.8868   -0.8726 H   0  0  0  0  0  0  0  0  0  0  0  0
   -0.5289    1.8773    0.9072 H   0  0  0  0  0  0  0  0  0  0  0  0
    0.5293   -0.3651    0.8851 H   0  0  0  0  0  0  0  0  0  0  0  0
   -1.0205   -0.3814    0.0098 H   0  0  0  0  0  0  0  0  0  0  0  0
    2.5098   -0.5199   -2.2412 H   0  0  0  0  0  0  0  0  0  0  0  0
    2.5833    0.2026   -0.6162 H   0  0  0  0  0  0  0  0  0  0  0  0
    2.1912   -2.0280    0.3934 H   0  0  0  0  0  0  0  0  0  0  0  0
    2.1177   -2.7506   -1.2316 H   0  0  0  0  0  0  0  0  0  0  0  0
    3.6395   -2.0407   -0.6413 H   0  0  0  0  0  0  0  0  0  0  0  0
   -2.1483    1.2116   -2.5781 H   0  0  0  0  0  0  0  0  0  0  0  0
   -2.3617    3.2523   -3.9379 H   0  0  0  0  0  0  0  0  0  0  0  0
    1.2971    4.3193   -6.2845 H   0  0  0  0  0  0  0  0  0  0  0  0
    0.3522    3.4164   -7.4928 H   0  0  0  0  0  0  0  0  0  0  0  0
    1.6554    5.4366   -8.7106 H   0  0  0  0  0  0  0  0  0  0  0  0
   -0.3937    7.6459   -8.9939 H   0  0  0  0  0  0  0  0  0  0  0  0
    1.5458    9.2283   -9.4061 H   0  0  0  0  0  0  0  0  0  0  0  0
    2.7345    7.8571   -9.0767 H   0  0  0  0  0  0  0  0  0  0  0  0
    1.7441    6.5359  -11.0022 H   0  0  0  0  0  0  0  0  0  0  0  0
    0.5555    7.9071  -11.3317 H   0  0  0  0  0  0  0  0  0  0  0  0
    1.2423    2.2447   -6.0021 H   0  0  0  0  0  0  0  0  0  0  0  0
    1.4512    0.2087   -4.6347 H   0  0  0  0  0  0  0  0  0  0  0  0
  1  2  1  0
  1 23  1  6
  1 24  1  0
  1 25  1  0
  2  3  1  0
  2 26  1  1
  2 27  1  0
  3  4  1  0
  6  3  1  1
  4  5  1  0
  4 28  1  6
  4 29  1  0
  5 30  1  1
  5 31  1  0
  5 32  1  0
  6  7  2  0
  6  8  2  0
  6  9  1  0
  9 22  2  0
  9 10  1  0
 10 11  2  0
 10 33  1  0
 11 12  1  0
 11 34  1  0
 12 13  1  0
 12 21  2  0
 13 14  1  0
 14 15  1  0
 14 35  1  1
 14 36  1  0
 15 16  2  0
 15 17  1  0
 17 18  1  0
 17 37  1  0
 18 20  1  0
 18 19  1  0
 18 38  1  6
 19 20  1  0
 19 39  1  6
 19 40  1  0
 20 41  1  6
 20 42  1  0
 21 22  1  0
 21 43  1  0
 22 44  1  0
M  END
$$$$
