ZINC000065363929
     RDKit          3D

 49 50  0  0  1  0  0  0  0  0999 V2000
    0.3995    1.1640    0.6098 C   0  0  1  0  0  0  0  0  0  0  0  0
    0.1625   -0.3237    0.3424 C   0  0  1  0  0  0  0  0  0  0  0  0
    0.6605   -0.6101   -0.5839 H   0  0  0  0  0  0  0  0  0  0  0  0
    0.7199   -1.1343    1.4839 C   0  0  0  0  0  0  0  0  0  0  0  0
   -0.0277   -1.6079    2.3132 O   0  0  0  0  0  0  0  0  0  0  0  0
    2.0492   -1.3331    1.5832 N   0  0  0  0  0  0  0  0  0  0  0  0
    2.9660   -0.8529    0.5378 C   0  0  1  0  0  0  0  0  0  0  0  0
    4.0928   -0.0590    1.2070 C   0  0  1  0  0  0  0  0  0  0  0  0
    4.7299   -0.8889    2.2373 N   0  0  1  0  0  0  0  0  0  0  0  0
    5.0478   -1.7522    1.8229 H   0  0  0  0  0  0  0  0  0  0  0  0
    5.8777   -0.1679    2.8037 C   0  0  1  0  0  0  0  0  0  0  0  0
    3.7675   -1.1861    3.3057 C   0  0  1  0  0  0  0  0  0  0  0  0
    2.6251   -2.0309    2.7432 C   0  0  1  0  0  0  0  0  0  0  0  0
   -1.2757   -0.5750    0.2215 N   0  0  0  0  0  0  0  0  0  0  0  0
   -2.1429   -0.1731    1.2400 C   0  0  0  0  0  0  0  0  0  0  0  0
   -2.3944    1.1770    1.4477 C   0  0  0  0  0  0  0  0  0  0  0  0
   -3.2529    1.5709    2.4555 C   0  0  0  0  0  0  0  0  0  0  0  0
   -3.8616    0.6230    3.2571 C   0  0  0  0  0  0  0  0  0  0  0  0
   -3.6131   -0.7222    3.0533 C   0  0  0  0  0  0  0  0  0  0  0  0
   -4.2790   -1.7518    3.9295 C   0  0  1  0  0  0  0  0  0  0  0  0
   -5.0945   -1.1091    4.8670 F   0  0  0  0  0  0  0  0  0  0  0  0
   -5.0586   -2.6029    3.1389 F   0  0  0  0  0  0  0  0  0  0  0  0
   -3.3019   -2.4992    4.5958 F   0  0  0  0  0  0  0  0  0  0  0  0
   -2.7605   -1.1232    2.0439 C   0  0  0  0  0  0  0  0  0  0  0  0
   -1.8733   -1.3356   -1.1226 S   0  0  1  0  0  0  0  0  0  0  0  0
   -1.9455   -3.0873   -0.6569 C   0  0  1  0  0  0  0  0  0  0  0  0
   -3.1830   -0.8050   -1.2724 O   0  0  0  0  0  0  0  0  0  0  0  0
   -0.8793   -1.1243   -2.1158 O   0  0  0  0  0  0  0  0  0  0  0  0
    1.4699    1.3521    0.6935 H   0  0  0  0  0  0  0  0  0  0  0  0
   -0.0093    1.7507   -0.2128 H   0  0  0  0  0  0  0  0  0  0  0  0
   -0.0932    1.4491    1.5394 H   0  0  0  0  0  0  0  0  0  0  0  0
    3.3862   -1.7030    0.0003 H   0  0  0  0  0  0  0  0  0  0  0  0
    2.4256   -0.2084   -0.1555 H   0  0  0  0  0  0  0  0  0  0  0  0
    4.8331    0.2229    0.4583 H   0  0  0  0  0  0  0  0  0  0  0  0
    3.6809    0.8391    1.6672 H   0  0  0  0  0  0  0  0  0  0  0  0
    5.5360    0.7665    3.2489 H   0  0  0  0  0  0  0  0  0  0  0  0
    6.3515   -0.7830    3.5687 H   0  0  0  0  0  0  0  0  0  0  0  0
    6.5971    0.0476    2.0137 H   0  0  0  0  0  0  0  0  0  0  0  0
    4.2681   -1.7348    4.1035 H   0  0  0  0  0  0  0  0  0  0  0  0
    3.3654   -0.2539    3.7024 H   0  0  0  0  0  0  0  0  0  0  0  0
    1.8599   -2.1676    3.5073 H   0  0  0  0  0  0  0  0  0  0  0  0
    3.0084   -3.0010    2.4268 H   0  0  0  0  0  0  0  0  0  0  0  0
   -1.9189    1.9179    0.8222 H   0  0  0  0  0  0  0  0  0  0  0  0
   -3.4485    2.6206    2.6178 H   0  0  0  0  0  0  0  0  0  0  0  0
   -4.5325    0.9337    4.0444 H   0  0  0  0  0  0  0  0  0  0  0  0
   -2.5668   -2.1738    1.8853 H   0  0  0  0  0  0  0  0  0  0  0  0
   -2.7124   -3.2295    0.1045 H   0  0  0  0  0  0  0  0  0  0  0  0
   -2.1890   -3.6867   -1.5342 H   0  0  0  0  0  0  0  0  0  0  0  0
   -0.9786   -3.3983   -0.2614 H   0  0  0  0  0  0  0  0  0  0  0  0
  1  2  1  0
  1 29  1  1
  1 30  1  0
  1 31  1  0
  2  3  1  6
  2  4  1  0
  2 14  1  0
  4  5  2  0
  4  6  1  0
  6 13  1  0
  6  7  1  0
  7  8  1  0
  7 32  1  6
  7 33  1  0
  8  9  1  0
  8 34  1  6
  8 35  1  0
  9 10  1  6
  9 11  1  0
  9 12  1  0
 11 36  1  1
 11 37  1  0
 11 38  1  0
 12 13  1  0
 12 39  1  1
 12 40  1  0
 13 41  1  1
 13 42  1  0
 14 15  1  0
 25 14  1  1
 15 24  2  0
 15 16  1  0
 16 17  2  0
 16 43  1  0
 17 18  1  0
 17 44  1  0
 18 19  2  0
 18 45  1  0
 19 20  1  0
 19 24  1  0
 20 21  1  1
 20 22  1  0
 20 23  1  0
 24 46  1  0
 25 26  1  0
 25 27  2  0
 25 28  2  0
 26 47  1  1
 26 48  1  0
 26 49  1  0
M  CHG  1   9   1
M  END
$$$$
