ZINC000020903287
     RDKit          3D

 61 62  0  0  1  0  0  0  0  0999 V2000
   -0.0187    1.5258    0.0104 C   0  0  1  0  0  0  0  0  0  0  0  0
    0.0021   -0.0041    0.0020 C   0  0  1  0  0  0  0  0  0  0  0  0
    0.6878   -0.4765   -1.2033 N   0  0  0  0  0  0  0  0  0  0  0  0
    2.1478   -0.5966   -1.2159 C   0  0  1  0  0  0  0  0  0  0  0  0
    2.5532   -1.9514   -0.6319 C   0  0  1  0  0  0  0  0  0  0  0  0
   -0.1875   -0.8749   -2.5515 S   0  0  1  0  0  0  0  0  0  0  0  0
    0.6166   -1.7761   -3.3001 O   0  0  0  0  0  0  0  0  0  0  0  0
   -1.4970   -1.1925   -2.1004 O   0  0  0  0  0  0  0  0  0  0  0  0
   -0.3375    0.5853   -3.5262 C   0  0  0  0  0  0  0  0  0  0  0  0
   -1.4057    1.4405   -3.3300 C   0  0  0  0  0  0  0  0  0  0  0  0
   -1.5234    2.5861   -4.0947 C   0  0  0  0  0  0  0  0  0  0  0  0
   -0.5727    2.8767   -5.0552 C   0  0  0  0  0  0  0  0  0  0  0  0
   -0.7013    4.1253   -5.8892 C   0  0  1  0  0  0  0  0  0  0  0  0
    0.0204    5.2805   -5.1924 C   0  0  1  0  0  0  0  0  0  0  0  0
   -0.1082    6.5291   -6.0263 C   0  0  0  0  0  0  0  0  0  0  0  0
   -0.7171    6.4981   -7.0748 O   0  0  0  0  0  0  0  0  0  0  0  0
    0.4534    7.6803   -5.6071 N   0  0  0  0  0  0  0  0  0  0  0  0
    0.3284    8.8941   -6.4178 C   0  0  2  0  0  0  0  0  0  0  0  0
   -0.6463    8.9065   -6.9056 H   0  0  0  0  0  0  0  0  0  0  0  0
    1.4302    8.9142   -7.4792 C   0  0  1  0  0  0  0  0  0  0  0  0
    0.4642   10.1244   -5.5184 C   0  0  1  0  0  0  0  0  0  0  0  0
   -0.7086   10.1706   -4.5370 C   0  0  1  0  0  0  0  0  0  0  0  0
   -0.5749   11.3824   -3.6511 C   0  0  0  0  0  0  0  0  0  0  0  0
    0.1237   11.2951   -2.4614 C   0  0  0  0  0  0  0  0  0  0  0  0
    0.2464   12.4066   -1.6488 C   0  0  0  0  0  0  0  0  0  0  0  0
   -0.3291   13.6055   -2.0261 C   0  0  0  0  0  0  0  0  0  0  0  0
   -1.0269   13.6930   -3.2161 C   0  0  0  0  0  0  0  0  0  0  0  0
   -1.1459   12.5826   -4.0308 C   0  0  0  0  0  0  0  0  0  0  0  0
    0.4962    2.0221   -5.2504 C   0  0  0  0  0  0  0  0  0  0  0  0
    0.6160    0.8786   -4.4831 C   0  0  0  0  0  0  0  0  0  0  0  0
    1.0039    1.9031    0.0027 H   0  0  0  0  0  0  0  0  0  0  0  0
   -0.5459    1.8868   -0.8726 H   0  0  0  0  0  0  0  0  0  0  0  0
   -0.5289    1.8773    0.9072 H   0  0  0  0  0  0  0  0  0  0  0  0
    0.5293   -0.3651    0.8851 H   0  0  0  0  0  0  0  0  0  0  0  0
   -1.0205   -0.3814    0.0098 H   0  0  0  0  0  0  0  0  0  0  0  0
    2.5098   -0.5199   -2.2412 H   0  0  0  0  0  0  0  0  0  0  0  0
    2.5833    0.2026   -0.6162 H   0  0  0  0  0  0  0  0  0  0  0  0
    2.1912   -2.0280    0.3934 H   0  0  0  0  0  0  0  0  0  0  0  0
    2.1177   -2.7506   -1.2316 H   0  0  0  0  0  0  0  0  0  0  0  0
    3.6395   -2.0407   -0.6413 H   0  0  0  0  0  0  0  0  0  0  0  0
   -2.1485    1.2135   -2.5796 H   0  0  0  0  0  0  0  0  0  0  0  0
   -2.3583    3.2539   -3.9419 H   0  0  0  0  0  0  0  0  0  0  0  0
   -0.2543    3.9556   -6.8687 H   0  0  0  0  0  0  0  0  0  0  0  0
   -1.7555    4.3750   -6.0092 H   0  0  0  0  0  0  0  0  0  0  0  0
   -0.4267    5.4502   -4.2129 H   0  0  0  0  0  0  0  0  0  0  0  0
    1.0745    5.0308   -5.0723 H   0  0  0  0  0  0  0  0  0  0  0  0
    0.9404    7.7052   -4.7686 H   0  0  0  0  0  0  0  0  0  0  0  0
    1.3334    8.0378   -8.1200 H   0  0  0  0  0  0  0  0  0  0  0  0
    1.3371    9.8173   -8.0824 H   0  0  0  0  0  0  0  0  0  0  0  0
    2.4048    8.9019   -6.9914 H   0  0  0  0  0  0  0  0  0  0  0  0
    1.4005   10.0671   -4.9633 H   0  0  0  0  0  0  0  0  0  0  0  0
    0.4602   11.0253   -6.1320 H   0  0  0  0  0  0  0  0  0  0  0  0
   -1.6449   10.2280   -5.0921 H   0  0  0  0  0  0  0  0  0  0  0  0
   -0.7046    9.2697   -3.9234 H   0  0  0  0  0  0  0  0  0  0  0  0
    0.5733   10.3584   -2.1667 H   0  0  0  0  0  0  0  0  0  0  0  0
    0.7916   12.3383   -0.7190 H   0  0  0  0  0  0  0  0  0  0  0  0
   -0.2338   14.4738   -1.3908 H   0  0  0  0  0  0  0  0  0  0  0  0
   -1.4768   14.6296   -3.5107 H   0  0  0  0  0  0  0  0  0  0  0  0
   -1.6911   12.6510   -4.9606 H   0  0  0  0  0  0  0  0  0  0  0  0
    1.2392    2.2494   -6.0006 H   0  0  0  0  0  0  0  0  0  0  0  0
    1.4511    0.2109   -4.6357 H   0  0  0  0  0  0  0  0  0  0  0  0
  1  2  1  0
  1 31  1  6
  1 32  1  0
  1 33  1  0
  2  3  1  0
  2 34  1  1
  2 35  1  0
  3  4  1  0
  6  3  1  1
  4  5  1  0
  4 36  1  6
  4 37  1  0
  5 38  1  1
  5 39  1  0
  5 40  1  0
  6  7  2  0
  6  8  2  0
  6  9  1  0
  9 30  2  0
  9 10  1  0
 10 11  2  0
 10 41  1  0
 11 12  1  0
 11 42  1  0
 12 13  1  0
 12 29  2  0
 13 14  1  0
 13 43  1  6
 13 44  1  0
 14 15  1  0
 14 45  1  1
 14 46  1  0
 15 16  2  0
 15 17  1  0
 17 18  1  0
 17 47  1  0
 18 19  1  6
 18 20  1  0
 18 21  1  0
 20 48  1  6
 20 49  1  0
 20 50  1  0
 21 22  1  0
 21 51  1  1
 21 52  1  0
 22 23  1  0
 22 53  1  6
 22 54  1  0
 23 28  2  0
 23 24  1  0
 24 25  2  0
 24 55  1  0
 25 26  1  0
 25 56  1  0
 26 27  2  0
 26 57  1  0
 27 28  1  0
 27 58  1  0
 28 59  1  0
 29 30  1  0
 29 60  1  0
 30 61  1  0
M  END
$$$$
