ZINC000096025560
     RDKit          3D

 46 48  0  0  1  0  0  0  0  0999 V2000
   -0.3995    4.1972   -0.6620 O   0  0  0  0  0  0  0  0  0  0  0  0
   -1.6819    3.5885   -0.7263 S   0  0  1  0  0  0  0  0  0  0  0  0
   -2.7443    4.1930   -1.4511 O   0  0  0  0  0  0  0  0  0  0  0  0
   -1.5325    1.8337   -1.1608 C   0  0  1  0  0  0  0  0  0  0  0  0
   -0.8952    1.7036   -2.5457 C   0  0  2  0  0  0  0  0  0  0  0  0
    0.1002    2.1476   -2.5387 H   0  0  0  0  0  0  0  0  0  0  0  0
   -1.7771    2.4089   -3.5976 C   0  0  1  0  0  0  0  0  0  0  0  0
   -1.6768    1.4647   -4.8247 C   0  0  1  0  0  0  0  0  0  0  0  0
   -1.6158    0.0748   -4.1434 C   0  0  1  0  0  0  0  0  0  0  0  0
   -0.8077    0.2858   -2.9247 N   0  0  0  0  0  0  0  0  0  0  0  0
    0.0498   -0.8810   -2.1212 S   0  0  1  0  0  0  0  0  0  0  0  0
    0.3104   -0.3651   -0.8230 O   0  0  0  0  0  0  0  0  0  0  0  0
   -0.6316   -2.1073   -2.3478 O   0  0  0  0  0  0  0  0  0  0  0  0
    1.6125   -1.0247   -2.9224 C   0  0  0  0  0  0  0  0  0  0  0  0
    1.7728   -1.9114   -3.9707 C   0  0  0  0  0  0  0  0  0  0  0  0
    2.9987   -2.0241   -4.5993 C   0  0  0  0  0  0  0  0  0  0  0  0
    4.0643   -1.2498   -4.1800 C   0  0  0  0  0  0  0  0  0  0  0  0
    5.4010   -1.3730   -4.8650 C   0  0  1  0  0  0  0  0  0  0  0  0
    5.4646   -0.4677   -5.9296 F   0  0  0  0  0  0  0  0  0  0  0  0
    6.4213   -1.0901   -3.9506 F   0  0  0  0  0  0  0  0  0  0  0  0
    5.5578   -2.6757   -5.3505 F   0  0  0  0  0  0  0  0  0  0  0  0
    3.9036   -0.3621   -3.1326 C   0  0  0  0  0  0  0  0  0  0  0  0
    2.6766   -0.2466   -2.5064 C   0  0  0  0  0  0  0  0  0  0  0  0
   -2.2439    3.5817    0.9436 C   0  0  0  0  0  0  0  0  0  0  0  0
   -3.5990    3.5712    1.2168 C   0  0  0  0  0  0  0  0  0  0  0  0
   -4.0399    3.5659    2.5270 C   0  0  0  0  0  0  0  0  0  0  0  0
   -3.1257    3.5705    3.5639 C   0  0  0  0  0  0  0  0  0  0  0  0
   -1.7707    3.5800    3.2907 C   0  0  0  0  0  0  0  0  0  0  0  0
   -1.3297    3.5811    1.9805 C   0  0  0  0  0  0  0  0  0  0  0  0
   -0.9072    1.3290   -0.4243 H   0  0  0  0  0  0  0  0  0  0  0  0
   -2.5220    1.3766   -1.1718 H   0  0  0  0  0  0  0  0  0  0  0  0
   -2.8078    2.4818   -3.2504 H   0  0  0  0  0  0  0  0  0  0  0  0
   -1.3788    3.3950   -3.8362 H   0  0  0  0  0  0  0  0  0  0  0  0
   -2.5600    1.5512   -5.4575 H   0  0  0  0  0  0  0  0  0  0  0  0
   -0.7687    1.6604   -5.3950 H   0  0  0  0  0  0  0  0  0  0  0  0
   -2.6183   -0.2636   -3.8815 H   0  0  0  0  0  0  0  0  0  0  0  0
   -1.1297   -0.6479   -4.7988 H   0  0  0  0  0  0  0  0  0  0  0  0
    0.9403   -2.5164   -4.2984 H   0  0  0  0  0  0  0  0  0  0  0  0
    3.1242   -2.7174   -5.4179 H   0  0  0  0  0  0  0  0  0  0  0  0
    4.7360    0.2432   -2.8052 H   0  0  0  0  0  0  0  0  0  0  0  0
    2.5511    0.4469   -1.6881 H   0  0  0  0  0  0  0  0  0  0  0  0
   -4.3132    3.5676    0.4067 H   0  0  0  0  0  0  0  0  0  0  0  0
   -5.0985    3.5584    2.7404 H   0  0  0  0  0  0  0  0  0  0  0  0
   -3.4702    3.5670    4.5875 H   0  0  0  0  0  0  0  0  0  0  0  0
   -1.0565    3.5840    4.1008 H   0  0  0  0  0  0  0  0  0  0  0  0
   -0.2711    3.5885    1.7671 H   0  0  0  0  0  0  0  0  0  0  0  0
  1  2  2  0
  2  3  2  0
  2  4  1  0
  2 24  1  1
  4  5  1  0
  4 30  1  1
  4 31  1  0
  5  6  1  1
  5 10  1  0
  5  7  1  0
  7  8  1  0
  7 32  1  1
  7 33  1  0
  8  9  1  0
  8 34  1  6
  8 35  1  0
  9 10  1  0
  9 36  1  1
  9 37  1  0
 11 10  1  6
 11 12  2  0
 11 13  2  0
 11 14  1  0
 14 23  2  0
 14 15  1  0
 15 16  2  0
 15 38  1  0
 16 17  1  0
 16 39  1  0
 17 18  1  0
 17 22  2  0
 18 19  1  6
 18 20  1  0
 18 21  1  0
 22 23  1  0
 22 40  1  0
 23 41  1  0
 24 29  2  0
 24 25  1  0
 25 26  2  0
 25 42  1  0
 26 27  1  0
 26 43  1  0
 27 28  2  0
 27 44  1  0
 28 29  1  0
 28 45  1  0
 29 46  1  0
M  END
$$$$
