ZINC000217632492
     RDKit          3D

 44 46  0  0  1  0  0  0  0  0999 V2000
   -0.0176    1.4478    0.0100 C   0  0  1  0  0  0  0  0  0  0  0  0
    0.0021   -0.0041    0.0020 O   0  0  0  0  0  0  0  0  0  0  0  0
    0.6005   -0.6018   -1.0464 C   0  0  0  0  0  0  0  0  0  0  0  0
    1.0924    0.0714   -1.9298 O   0  0  0  0  0  0  0  0  0  0  0  0
    0.6585   -2.0760   -1.1219 C   0  0  0  0  0  0  0  0  0  0  0  0
    0.0891   -2.8529   -0.1110 C   0  0  0  0  0  0  0  0  0  0  0  0
    0.1469   -4.2290   -0.1877 C   0  0  0  0  0  0  0  0  0  0  0  0
    0.7674   -4.8396   -1.2632 C   0  0  0  0  0  0  0  0  0  0  0  0
    0.8361   -6.5980   -1.3534 S   0  0  1  0  0  0  0  0  0  0  0  0
    1.9426   -6.9141   -2.1871 O   0  0  0  0  0  0  0  0  0  0  0  0
    0.7063   -7.0735   -0.0207 O   0  0  0  0  0  0  0  0  0  0  0  0
   -0.5181   -7.1006   -2.1632 N   0  0  0  0  0  0  0  0  0  0  0  0
   -1.7716   -7.4117   -1.4795 C   0  0  1  0  0  0  0  0  0  0  0  0
   -2.9683   -7.0926   -2.4182 C   0  0  1  0  0  0  0  0  0  0  0  0
   -2.2868   -7.7111   -4.0144 S   0  0  0  0  0  0  0  0  0  0  0  0
   -0.5508   -7.2613   -3.6247 C   0  0  2  0  0  0  0  0  0  0  0  0
   -0.2811   -6.3281   -4.1192 H   0  0  0  0  0  0  0  0  0  0  0  0
    0.3838   -8.3657   -4.0465 C   0  0  0  0  0  0  0  0  0  0  0  0
    0.6732   -9.3974   -3.1731 C   0  0  0  0  0  0  0  0  0  0  0  0
    1.5305  -10.4104   -3.5600 C   0  0  0  0  0  0  0  0  0  0  0  0
    2.0979  -10.3920   -4.8204 C   0  0  0  0  0  0  0  0  0  0  0  0
    3.0329  -11.4962   -5.2420 C   0  0  1  0  0  0  0  0  0  0  0  0
    2.2991  -12.5245   -5.8432 F   0  0  0  0  0  0  0  0  0  0  0  0
    3.9661  -10.9938   -6.1553 F   0  0  0  0  0  0  0  0  0  0  0  0
    3.7015  -11.9953   -4.1191 F   0  0  0  0  0  0  0  0  0  0  0  0
    1.8074   -9.3610   -5.6942 C   0  0  0  0  0  0  0  0  0  0  0  0
    0.9471   -8.3500   -5.3087 C   0  0  0  0  0  0  0  0  0  0  0  0
    1.3337   -4.0758   -2.2684 C   0  0  0  0  0  0  0  0  0  0  0  0
    1.2780   -2.6989   -2.2072 C   0  0  0  0  0  0  0  0  0  0  0  0
    1.0050    1.8251    0.0023 H   0  0  0  0  0  0  0  0  0  0  0  0
   -0.5448    1.8089   -0.8731 H   0  0  0  0  0  0  0  0  0  0  0  0
   -0.5278    1.7993    0.9068 H   0  0  0  0  0  0  0  0  0  0  0  0
   -0.3952   -2.3775    0.7291 H   0  0  0  0  0  0  0  0  0  0  0  0
   -0.2928   -4.8311    0.5936 H   0  0  0  0  0  0  0  0  0  0  0  0
   -1.7888   -8.4691   -1.2156 H   0  0  0  0  0  0  0  0  0  0  0  0
   -1.8502   -6.8106   -0.5736 H   0  0  0  0  0  0  0  0  0  0  0  0
   -3.8603   -7.6468   -2.1263 H   0  0  0  0  0  0  0  0  0  0  0  0
   -3.1655   -6.0213   -2.4595 H   0  0  0  0  0  0  0  0  0  0  0  0
    0.2299   -9.4118   -2.1884 H   0  0  0  0  0  0  0  0  0  0  0  0
    1.7572  -11.2161   -2.8775 H   0  0  0  0  0  0  0  0  0  0  0  0
    2.2505   -9.3468   -6.6791 H   0  0  0  0  0  0  0  0  0  0  0  0
    0.7201   -7.5445   -5.9914 H   0  0  0  0  0  0  0  0  0  0  0  0
    1.8165   -4.5589   -3.1051 H   0  0  0  0  0  0  0  0  0  0  0  0
    1.7205   -2.1038   -2.9924 H   0  0  0  0  0  0  0  0  0  0  0  0
  1  2  1  0
  1 30  1  6
  1 31  1  0
  1 32  1  0
  2  3  1  0
  3  4  2  0
  3  5  1  0
  5 29  2  0
  5  6  1  0
  6  7  2  0
  6 33  1  0
  7  8  1  0
  7 34  1  0
  8  9  1  0
  8 28  2  0
  9 10  2  0
  9 11  2  0
  9 12  1  6
 12 16  1  0
 12 13  1  0
 13 14  1  0
 13 35  1  1
 13 36  1  0
 14 15  1  0
 14 37  1  1
 14 38  1  0
 15 16  1  0
 16 17  1  6
 16 18  1  0
 18 27  2  0
 18 19  1  0
 19 20  2  0
 19 39  1  0
 20 21  1  0
 20 40  1  0
 21 22  1  0
 21 26  2  0
 22 23  1  6
 22 24  1  0
 22 25  1  0
 26 27  1  0
 26 41  1  0
 27 42  1  0
 28 29  1  0
 28 43  1  0
 29 44  1  0
M  END
$$$$
