ZINC000000857028
     RDKit          3D

 57 59  0  0  1  0  0  0  0  0999 V2000
   -0.0184    1.5028    0.0103 C   0  0  1  0  0  0  0  0  0  0  0  0
    0.0021   -0.0041    0.0020 C   0  0  0  0  0  0  0  0  0  0  0  0
    0.0057   -0.6887   -1.1989 C   0  0  0  0  0  0  0  0  0  0  0  0
    0.0245   -2.0709   -1.2065 C   0  0  0  0  0  0  0  0  0  0  0  0
    0.0400   -2.7685   -0.0132 C   0  0  0  0  0  0  0  0  0  0  0  0
    0.0633   -4.5303   -0.0229 S   0  0  1  0  0  0  0  0  0  0  0  0
   -0.4690   -4.9455    1.2275 O   0  0  0  0  0  0  0  0  0  0  0  0
   -0.4824   -4.9319   -1.2719 O   0  0  0  0  0  0  0  0  0  0  0  0
    1.6514   -4.9995   -0.0340 N   0  0  0  0  0  0  0  0  0  0  0  0
    2.3607   -5.2139    1.2298 C   0  0  1  0  0  0  0  0  0  0  0  0
    2.3045   -6.6971    1.6009 C   0  0  1  0  0  0  0  0  0  0  0  0
    3.0341   -6.9177    2.9009 C   0  0  0  0  0  0  0  0  0  0  0  0
    4.3868   -7.2026    2.8947 C   0  0  0  0  0  0  0  0  0  0  0  0
    5.0560   -7.4049    4.0872 C   0  0  0  0  0  0  0  0  0  0  0  0
    4.3727   -7.3219    5.2860 C   0  0  0  0  0  0  0  0  0  0  0  0
    3.0203   -7.0361    5.2923 C   0  0  0  0  0  0  0  0  0  0  0  0
    2.3519   -6.8295    4.1000 C   0  0  0  0  0  0  0  0  0  0  0  0
    2.3471   -5.2001   -1.3075 C   0  0  1  0  0  0  0  0  0  0  0  0
    3.0899   -3.9422   -1.6778 C   0  0  0  0  0  0  0  0  0  0  0  0
    3.0428   -2.9735   -0.9496 O   0  0  0  0  0  0  0  0  0  0  0  0
    3.8065   -3.8937   -2.8182 N   0  0  0  0  0  0  0  0  0  0  0  0
    4.5286   -2.6709   -3.1782 C   0  0  1  0  0  0  0  0  0  0  0  0
    5.2551   -2.8805   -4.5083 C   0  0  2  0  0  0  0  0  0  0  0  0
    5.8889   -3.7652   -4.4479 H   0  0  0  0  0  0  0  0  0  0  0  0
    6.1155   -1.6412   -4.8359 C   0  0  1  0  0  0  0  0  0  0  0  0
    5.9168   -1.4982   -6.3696 C   0  0  1  0  0  0  0  0  0  0  0  0
    4.4507   -1.9757   -6.5220 C   0  0  1  0  0  0  0  0  0  0  0  0
    4.3001   -3.0380   -5.5641 O   0  0  0  0  0  0  0  0  0  0  0  0
    0.0378   -2.0839    1.1877 C   0  0  0  0  0  0  0  0  0  0  0  0
    0.0229   -0.7016    1.1953 C   0  0  0  0  0  0  0  0  0  0  0  0
    1.0042    1.8801    0.0026 H   0  0  0  0  0  0  0  0  0  0  0  0
   -0.5455    1.8639   -0.8728 H   0  0  0  0  0  0  0  0  0  0  0  0
   -0.5286    1.8543    0.9071 H   0  0  0  0  0  0  0  0  0  0  0  0
   -0.0064   -0.1436   -2.1312 H   0  0  0  0  0  0  0  0  0  0  0  0
    0.0266   -2.6057   -2.1448 H   0  0  0  0  0  0  0  0  0  0  0  0
    3.4005   -4.9060    1.1197 H   0  0  0  0  0  0  0  0  0  0  0  0
    1.8886   -4.6246    2.0159 H   0  0  0  0  0  0  0  0  0  0  0  0
    1.2647   -7.0050    1.7111 H   0  0  0  0  0  0  0  0  0  0  0  0
    2.7766   -7.2865    0.8148 H   0  0  0  0  0  0  0  0  0  0  0  0
    4.9206   -7.2675    1.9581 H   0  0  0  0  0  0  0  0  0  0  0  0
    6.1127   -7.6282    4.0822 H   0  0  0  0  0  0  0  0  0  0  0  0
    4.8955   -7.4807    6.2176 H   0  0  0  0  0  0  0  0  0  0  0  0
    2.4863   -6.9716    6.2288 H   0  0  0  0  0  0  0  0  0  0  0  0
    1.2953   -6.6062    4.1049 H   0  0  0  0  0  0  0  0  0  0  0  0
    3.0540   -6.0240   -1.2095 H   0  0  0  0  0  0  0  0  0  0  0  0
    1.6206   -5.4353   -2.0853 H   0  0  0  0  0  0  0  0  0  0  0  0
    3.8442   -4.6685   -3.4007 H   0  0  0  0  0  0  0  0  0  0  0  0
    3.8217   -1.8470   -3.2762 H   0  0  0  0  0  0  0  0  0  0  0  0
    5.2551   -2.4357   -2.4004 H   0  0  0  0  0  0  0  0  0  0  0  0
    5.7427   -0.7607   -4.3127 H   0  0  0  0  0  0  0  0  0  0  0  0
    7.1633   -1.8219   -4.5957 H   0  0  0  0  0  0  0  0  0  0  0  0
    6.0268   -0.4606   -6.6848 H   0  0  0  0  0  0  0  0  0  0  0  0
    6.6004   -2.1475   -6.9165 H   0  0  0  0  0  0  0  0  0  0  0  0
    3.7622   -1.1614   -6.2964 H   0  0  0  0  0  0  0  0  0  0  0  0
    4.2777   -2.3499   -7.5310 H   0  0  0  0  0  0  0  0  0  0  0  0
    0.0503   -2.6289    2.1200 H   0  0  0  0  0  0  0  0  0  0  0  0
    0.0211   -0.1667    2.1335 H   0  0  0  0  0  0  0  0  0  0  0  0
  1  2  1  0
  1 31  1  6
  1 32  1  0
  1 33  1  0
  2 30  2  0
  2  3  1  0
  3  4  2  0
  3 34  1  0
  4  5  1  0
  4 35  1  0
  5  6  1  0
  5 29  2  0
  6  7  2  0
  6  8  2  0
  6  9  1  6
  9 10  1  0
  9 18  1  0
 10 11  1  0
 10 36  1  6
 10 37  1  0
 11 12  1  0
 11 38  1  1
 11 39  1  0
 12 17  2  0
 12 13  1  0
 13 14  2  0
 13 40  1  0
 14 15  1  0
 14 41  1  0
 15 16  2  0
 15 42  1  0
 16 17  1  0
 16 43  1  0
 17 44  1  0
 18 19  1  0
 18 45  1  1
 18 46  1  0
 19 20  2  0
 19 21  1  0
 21 22  1  0
 21 47  1  0
 22 23  1  0
 22 48  1  6
 22 49  1  0
 23 24  1  1
 23 28  1  0
 23 25  1  0
 25 26  1  0
 25 50  1  1
 25 51  1  0
 26 27  1  0
 26 52  1  6
 26 53  1  0
 27 28  1  0
 27 54  1  1
 27 55  1  0
 29 30  1  0
 29 56  1  0
 30 57  1  0
M  END
$$$$
