ZINC000408533121
     RDKit          3D

 59 60  0  0  1  0  0  0  0  0999 V2000
   -0.0187    1.5258    0.0104 C   0  0  1  0  0  0  0  0  0  0  0  0
    0.0021   -0.0041    0.0020 C   0  0  1  0  0  0  0  0  0  0  0  0
    0.7182   -0.4975   -1.2568 C   0  0  1  0  0  0  0  0  0  0  0  0
    1.7103   -0.0491   -1.3098 H   0  0  0  0  0  0  0  0  0  0  0  0
    0.8493   -2.0210   -1.2049 C   0  0  1  0  0  0  0  0  0  0  0  0
   -0.0549   -0.1139   -2.4405 N   0  0  0  0  0  0  0  0  0  0  0  0
    0.5610    0.0279   -3.6309 C   0  0  0  0  0  0  0  0  0  0  0  0
    1.7554   -0.1622   -3.7221 O   0  0  0  0  0  0  0  0  0  0  0  0
   -0.2343    0.4225   -4.8486 C   0  0  1  0  0  0  0  0  0  0  0  0
    0.6578    0.5093   -6.0075 N   0  0  0  0  0  0  0  0  0  0  0  0
    0.9760   -0.6949   -6.7787 C   0  0  1  0  0  0  0  0  0  0  0  0
   -0.1165   -0.9356   -7.8224 C   0  0  1  0  0  0  0  0  0  0  0  0
    0.2108   -2.1743   -8.6158 C   0  0  0  0  0  0  0  0  0  0  0  0
    0.9726   -2.0777   -9.7653 C   0  0  0  0  0  0  0  0  0  0  0  0
    1.2728   -3.2140  -10.4930 C   0  0  0  0  0  0  0  0  0  0  0  0
    0.8117   -4.4469  -10.0710 C   0  0  0  0  0  0  0  0  0  0  0  0
    0.0507   -4.5437   -8.9211 C   0  0  0  0  0  0  0  0  0  0  0  0
   -0.2459   -3.4080   -8.1910 C   0  0  0  0  0  0  0  0  0  0  0  0
    1.3064    1.9686   -6.4456 S   0  0  1  0  0  0  0  0  0  0  0  0
    1.6313    1.8654   -7.8251 O   0  0  0  0  0  0  0  0  0  0  0  0
    0.4392    2.9661   -5.9239 O   0  0  0  0  0  0  0  0  0  0  0  0
    2.8350    2.1392   -5.5859 C   0  0  0  0  0  0  0  0  0  0  0  0
    2.8614    2.7283   -4.3356 C   0  0  0  0  0  0  0  0  0  0  0  0
    4.0587    2.8628   -3.6592 C   0  0  0  0  0  0  0  0  0  0  0  0
    5.2347    2.4061   -4.2357 C   0  0  0  0  0  0  0  0  0  0  0  0
    6.4135    2.5369   -3.5722 O   0  0  0  0  0  0  0  0  0  0  0  0
    6.3681    3.1545   -2.2844 C   0  0  1  0  0  0  0  0  0  0  0  0
    5.2055    1.8152   -5.4907 C   0  0  0  0  0  0  0  0  0  0  0  0
    6.4813    1.3174   -6.1198 C   0  0  1  0  0  0  0  0  0  0  0  0
    4.0053    1.6783   -6.1605 C   0  0  0  0  0  0  0  0  0  0  0  0
    1.0039    1.9031    0.0027 H   0  0  0  0  0  0  0  0  0  0  0  0
   -0.5459    1.8868   -0.8726 H   0  0  0  0  0  0  0  0  0  0  0  0
   -0.5289    1.8773    0.9072 H   0  0  0  0  0  0  0  0  0  0  0  0
    0.5293   -0.3651    0.8851 H   0  0  0  0  0  0  0  0  0  0  0  0
   -1.0205   -0.3814    0.0098 H   0  0  0  0  0  0  0  0  0  0  0  0
   -0.1428   -2.4694   -1.1520 H   0  0  0  0  0  0  0  0  0  0  0  0
    1.3594   -2.3725   -2.1017 H   0  0  0  0  0  0  0  0  0  0  0  0
    1.4245   -2.3064   -0.3242 H   0  0  0  0  0  0  0  0  0  0  0  0
   -1.0102    0.0381   -2.3676 H   0  0  0  0  0  0  0  0  0  0  0  0
   -1.0041   -0.3256   -5.0379 H   0  0  0  0  0  0  0  0  0  0  0  0
   -0.7034    1.3915   -4.6778 H   0  0  0  0  0  0  0  0  0  0  0  0
    1.9347   -0.5625   -7.2801 H   0  0  0  0  0  0  0  0  0  0  0  0
    1.0324   -1.5519   -6.1075 H   0  0  0  0  0  0  0  0  0  0  0  0
   -1.0752   -1.0681   -7.3210 H   0  0  0  0  0  0  0  0  0  0  0  0
   -0.1729   -0.0786   -8.4936 H   0  0  0  0  0  0  0  0  0  0  0  0
    1.3328   -1.1144  -10.0950 H   0  0  0  0  0  0  0  0  0  0  0  0
    1.8674   -3.1384  -11.3915 H   0  0  0  0  0  0  0  0  0  0  0  0
    1.0457   -5.3346  -10.6400 H   0  0  0  0  0  0  0  0  0  0  0  0
   -0.3098   -5.5069   -8.5916 H   0  0  0  0  0  0  0  0  0  0  0  0
   -0.8405   -3.4835   -7.2925 H   0  0  0  0  0  0  0  0  0  0  0  0
    1.9455    3.0841   -3.8873 H   0  0  0  0  0  0  0  0  0  0  0  0
    4.0789    3.3235   -2.6825 H   0  0  0  0  0  0  0  0  0  0  0  0
    5.7239    2.5729   -1.6250 H   0  0  0  0  0  0  0  0  0  0  0  0
    7.3737    3.1962   -1.8658 H   0  0  0  0  0  0  0  0  0  0  0  0
    5.9722    4.1655   -2.3801 H   0  0  0  0  0  0  0  0  0  0  0  0
    6.6453    0.2781   -5.8352 H   0  0  0  0  0  0  0  0  0  0  0  0
    6.4035    1.3891   -7.2047 H   0  0  0  0  0  0  0  0  0  0  0  0
    7.3178    1.9250   -5.7745 H   0  0  0  0  0  0  0  0  0  0  0  0
    3.9820    1.2180   -7.1373 H   0  0  0  0  0  0  0  0  0  0  0  0
  1  2  1  0
  1 31  1  6
  1 32  1  0
  1 33  1  0
  2  3  1  0
  2 34  1  1
  2 35  1  0
  3  4  1  6
  3  5  1  0
  3  6  1  0
  5 36  1  1
  5 37  1  0
  5 38  1  0
  6  7  1  0
  6 39  1  0
  7  8  2  0
  7  9  1  0
  9 10  1  0
  9 40  1  6
  9 41  1  0
 10 11  1  0
 19 10  1  1
 11 12  1  0
 11 42  1  6
 11 43  1  0
 12 13  1  0
 12 44  1  1
 12 45  1  0
 13 18  2  0
 13 14  1  0
 14 15  2  0
 14 46  1  0
 15 16  1  0
 15 47  1  0
 16 17  2  0
 16 48  1  0
 17 18  1  0
 17 49  1  0
 18 50  1  0
 19 20  2  0
 19 21  2  0
 19 22  1  0
 22 30  2  0
 22 23  1  0
 23 24  2  0
 23 51  1  0
 24 25  1  0
 24 52  1  0
 25 26  1  0
 25 28  2  0
 26 27  1  0
 27 53  1  1
 27 54  1  0
 27 55  1  0
 28 29  1  0
 28 30  1  0
 29 56  1  6
 29 57  1  0
 29 58  1  0
 30 59  1  0
M  END
$$$$
