ZINC000096025322
     RDKit          3D

 36 37  0  0  1  0  0  0  0  0999 V2000
   -0.0225    1.8097    0.0120 C   0  0  1  0  0  0  0  0  0  0  0  0
    0.0021   -0.0041    0.0020 S   0  0  1  0  0  0  0  0  0  0  0  0
    0.8010   -0.4520    1.0884 O   0  0  0  0  0  0  0  0  0  0  0  0
   -1.3336   -0.4743   -0.1172 O   0  0  0  0  0  0  0  0  0  0  0  0
    0.8798   -0.3584   -1.5454 C   0  0  1  0  0  0  0  0  0  0  0  0
    0.3481    0.0693   -2.3954 H   0  0  0  0  0  0  0  0  0  0  0  0
    2.3360    0.1736   -1.4848 C   0  0  1  0  0  0  0  0  0  0  0  0
    3.0526   -0.7667   -2.4858 C   0  0  1  0  0  0  0  0  0  0  0  0
    2.4180   -2.0826   -2.2879 N   0  0  0  0  0  0  0  0  0  0  0  0
    3.1052   -3.5480   -2.6386 S   0  0  1  0  0  0  0  0  0  0  0  0
    2.0316   -4.4590   -2.8301 O   0  0  0  0  0  0  0  0  0  0  0  0
    4.0990   -3.2998   -3.6234 O   0  0  0  0  0  0  0  0  0  0  0  0
    3.9595   -4.0826   -1.1933 C   0  0  0  0  0  0  0  0  0  0  0  0
    5.2833   -3.7323   -1.0036 C   0  0  0  0  0  0  0  0  0  0  0  0
    5.9535   -4.1518    0.1303 C   0  0  0  0  0  0  0  0  0  0  0  0
    5.3000   -4.9211    1.0747 C   0  0  0  0  0  0  0  0  0  0  0  0
    6.0308   -5.3787    2.3106 C   0  0  1  0  0  0  0  0  0  0  0  0
    5.8779   -4.4252    3.3228 F   0  0  0  0  0  0  0  0  0  0  0  0
    5.5031   -6.6017    2.7384 F   0  0  0  0  0  0  0  0  0  0  0  0
    7.3900   -5.5342    2.0179 F   0  0  0  0  0  0  0  0  0  0  0  0
    3.9759   -5.2702    0.8857 C   0  0  0  0  0  0  0  0  0  0  0  0
    3.3045   -4.8475   -0.2464 C   0  0  0  0  0  0  0  0  0  0  0  0
    1.0702   -1.8788   -1.7294 C   0  0  1  0  0  0  0  0  0  0  0  0
    1.0001    2.1870    0.0043 H   0  0  0  0  0  0  0  0  0  0  0  0
   -0.5497    2.1708   -0.8711 H   0  0  0  0  0  0  0  0  0  0  0  0
   -0.5327    2.1613    0.9088 H   0  0  0  0  0  0  0  0  0  0  0  0
    2.3874    1.2104   -1.8174 H   0  0  0  0  0  0  0  0  0  0  0  0
    2.7500    0.0656   -0.4823 H   0  0  0  0  0  0  0  0  0  0  0  0
    2.8985   -0.4211   -3.5079 H   0  0  0  0  0  0  0  0  0  0  0  0
    4.1175   -0.8212   -2.2594 H   0  0  0  0  0  0  0  0  0  0  0  0
    5.7939   -3.1313   -1.7414 H   0  0  0  0  0  0  0  0  0  0  0  0
    6.9879   -3.8787    0.2782 H   0  0  0  0  0  0  0  0  0  0  0  0
    3.4651   -5.8709    1.6237 H   0  0  0  0  0  0  0  0  0  0  0  0
    2.2700   -5.1203   -0.3940 H   0  0  0  0  0  0  0  0  0  0  0  0
    0.9891   -2.3796   -0.7646 H   0  0  0  0  0  0  0  0  0  0  0  0
    0.3208   -2.2707   -2.4170 H   0  0  0  0  0  0  0  0  0  0  0  0
  1  2  1  0
  1 24  1  6
  1 25  1  0
  1 26  1  0
  2  3  2  0
  2  4  2  0
  2  5  1  6
  5  6  1  6
  5 23  1  0
  5  7  1  0
  7  8  1  0
  7 27  1  6
  7 28  1  0
  8  9  1  0
  8 29  1  6
  8 30  1  0
 10  9  1  1
  9 23  1  0
 10 11  2  0
 10 12  2  0
 10 13  1  0
 13 22  2  0
 13 14  1  0
 14 15  2  0
 14 31  1  0
 15 16  1  0
 15 32  1  0
 16 17  1  0
 16 21  2  0
 17 18  1  1
 17 19  1  0
 17 20  1  0
 21 22  1  0
 21 33  1  0
 22 34  1  0
 23 35  1  1
 23 36  1  0
M  END
$$$$
