ZINC000015743889
     RDKit          3D

 53 55  0  0  1  0  0  0  0  0999 V2000
   -0.0187    1.5258    0.0104 C   0  0  1  0  0  0  0  0  0  0  0  0
    0.0021   -0.0041    0.0020 C   0  0  1  0  0  0  0  0  0  0  0  0
    0.5123   -0.3556   -0.8948 H   0  0  0  0  0  0  0  0  0  0  0  0
    0.7421   -0.5109    1.2415 C   0  0  1  0  0  0  0  0  0  0  0  0
    2.1879   -0.0922    1.1696 C   0  0  0  0  0  0  0  0  0  0  0  0
    2.5872    0.5485    0.2204 O   0  0  0  0  0  0  0  0  0  0  0  0
    3.0373   -0.4297    2.1601 N   0  0  0  0  0  0  0  0  0  0  0  0
    2.5689   -1.2111    3.3133 C   0  0  1  0  0  0  0  0  0  0  0  0
    3.4447   -2.4632    3.4453 C   0  0  1  0  0  0  0  0  0  0  0  0
    4.8560   -2.0569    3.3912 N   0  0  0  0  0  0  0  0  0  0  0  0
    5.8999   -2.4726    4.6077 S   0  0  1  0  0  0  0  0  0  0  0  0
    6.9587   -1.5256    4.5690 O   0  0  0  0  0  0  0  0  0  0  0  0
    5.1018   -2.6993    5.7614 O   0  0  0  0  0  0  0  0  0  0  0  0
    6.6077   -4.0281    4.1789 C   0  0  0  0  0  0  0  0  0  0  0  0
    5.9929   -5.2005    4.5769 C   0  0  0  0  0  0  0  0  0  0  0  0
    6.5482   -6.4209    4.2405 C   0  0  0  0  0  0  0  0  0  0  0  0
    7.7180   -6.4689    3.5056 C   0  0  0  0  0  0  0  0  0  0  0  0
    8.3236   -7.7993    3.1392 C   0  0  1  0  0  0  0  0  0  0  0  0
    7.8090   -8.2231    1.9092 F   0  0  0  0  0  0  0  0  0  0  0  0
    9.7132   -7.6686    3.0432 F   0  0  0  0  0  0  0  0  0  0  0  0
    8.0108   -8.7414    4.1250 F   0  0  0  0  0  0  0  0  0  0  0  0
    8.3321   -5.2966    3.1063 C   0  0  0  0  0  0  0  0  0  0  0  0
    7.7747   -4.0762    3.4395 C   0  0  0  0  0  0  0  0  0  0  0  0
    5.3245   -1.2756    2.2380 C   0  0  1  0  0  0  0  0  0  0  0  0
    4.4499   -0.0282    2.1033 C   0  0  1  0  0  0  0  0  0  0  0  0
   -1.4117   -0.5257    0.0127 C   0  0  0  0  0  0  0  0  0  0  0  0
   -2.2591   -0.2043    1.0565 C   0  0  0  0  0  0  0  0  0  0  0  0
   -3.5560   -0.6827    1.0663 C   0  0  0  0  0  0  0  0  0  0  0  0
   -4.0056   -1.4823    0.0321 C   0  0  0  0  0  0  0  0  0  0  0  0
   -3.1585   -1.8029   -1.0121 C   0  0  0  0  0  0  0  0  0  0  0  0
   -1.8629   -1.3209   -1.0241 C   0  0  0  0  0  0  0  0  0  0  0  0
    1.0039    1.9031    0.0027 H   0  0  0  0  0  0  0  0  0  0  0  0
   -0.5459    1.8868   -0.8726 H   0  0  0  0  0  0  0  0  0  0  0  0
   -0.5289    1.8773    0.9072 H   0  0  0  0  0  0  0  0  0  0  0  0
    0.2852   -0.0874    2.1360 H   0  0  0  0  0  0  0  0  0  0  0  0
    0.6803   -1.5984    1.2822 H   0  0  0  0  0  0  0  0  0  0  0  0
    2.6502   -0.6106    4.2194 H   0  0  0  0  0  0  0  0  0  0  0  0
    1.5308   -1.5054    3.1585 H   0  0  0  0  0  0  0  0  0  0  0  0
    3.2413   -2.9532    4.3975 H   0  0  0  0  0  0  0  0  0  0  0  0
    3.2295   -3.1482    2.6252 H   0  0  0  0  0  0  0  0  0  0  0  0
    5.0789   -5.1630    5.1511 H   0  0  0  0  0  0  0  0  0  0  0  0
    6.0682   -7.3368    4.5521 H   0  0  0  0  0  0  0  0  0  0  0  0
    9.2458   -5.3341    2.5319 H   0  0  0  0  0  0  0  0  0  0  0  0
    8.2545   -3.1603    3.1276 H   0  0  0  0  0  0  0  0  0  0  0  0
    6.3625   -0.9813    2.3929 H   0  0  0  0  0  0  0  0  0  0  0  0
    5.2432   -1.8760    1.3320 H   0  0  0  0  0  0  0  0  0  0  0  0
    4.6544    0.4608    1.1509 H   0  0  0  0  0  0  0  0  0  0  0  0
    4.6629    0.6581    2.9229 H   0  0  0  0  0  0  0  0  0  0  0  0
   -1.9079    0.4204    1.8645 H   0  0  0  0  0  0  0  0  0  0  0  0
   -4.2179   -0.4322    1.8822 H   0  0  0  0  0  0  0  0  0  0  0  0
   -5.0186   -1.8567    0.0402 H   0  0  0  0  0  0  0  0  0  0  0  0
   -3.5096   -2.4278   -1.8199 H   0  0  0  0  0  0  0  0  0  0  0  0
   -1.2011   -1.5714   -1.8399 H   0  0  0  0  0  0  0  0  0  0  0  0
  1  2  1  0
  1 32  1  6
  1 33  1  0
  1 34  1  0
  2  3  1  6
  2  4  1  0
  2 26  1  0
  4  5  1  0
  4 35  1  1
  4 36  1  0
  5  6  2  0
  5  7  1  0
  7 25  1  0
  7  8  1  0
  8  9  1  0
  8 37  1  1
  8 38  1  0
  9 10  1  0
  9 39  1  1
  9 40  1  0
 11 10  1  6
 10 24  1  0
 11 12  2  0
 11 13  2  0
 11 14  1  0
 14 23  2  0
 14 15  1  0
 15 16  2  0
 15 41  1  0
 16 17  1  0
 16 42  1  0
 17 18  1  0
 17 22  2  0
 18 19  1  6
 18 20  1  0
 18 21  1  0
 22 23  1  0
 22 43  1  0
 23 44  1  0
 24 25  1  0
 24 45  1  1
 24 46  1  0
 25 47  1  6
 25 48  1  0
 26 31  2  0
 26 27  1  0
 27 28  2  0
 27 49  1  0
 28 29  1  0
 28 50  1  0
 29 30  2  0
 29 51  1  0
 30 31  1  0
 30 52  1  0
 31 53  1  0
M  END
$$$$
