ZINC000408627012
     RDKit          3D

 50 52  0  0  0  0  0  0  0  0999 V2000
   -0.0286    1.5524    0.0006 C   0  0  1  0  0  0  0  0  0  0  0  0
   -0.0172    0.0225   -0.0032 C   0  0  1  0  0  0  0  0  0  0  0  0
    0.6844   -0.4636    1.1875 N   0  0  0  0  0  0  0  0  0  0  0  0
   -0.0375   -0.6121    2.4536 C   0  0  1  0  0  0  0  0  0  0  0  0
   -0.7333   -1.9743    2.4872 C   0  0  1  0  0  0  0  0  0  0  0  0
    2.2936   -0.8452    1.1023 S   0  0  1  0  0  0  0  0  0  0  0  0
    2.5450   -1.7622    2.1583 O   0  0  0  0  0  0  0  0  0  0  0  0
    2.5650   -1.1372   -0.2617 O   0  0  0  0  0  0  0  0  0  0  0  0
    3.1976    0.6173    1.4875 C   0  0  0  0  0  0  0  0  0  0  0  0
    3.5564    1.4926    0.4791 C   0  0  0  0  0  0  0  0  0  0  0  0
    4.2651    2.6400    0.7786 C   0  0  0  0  0  0  0  0  0  0  0  0
    4.6166    2.9138    2.0924 C   0  0  0  0  0  0  0  0  0  0  0  0
    5.3134    4.0420    2.3896 O   0  0  0  0  0  0  0  0  0  0  0  0
    5.6409    4.2593    3.7635 C   0  0  1  0  0  0  0  0  0  0  0  0
    6.4078    5.5495    3.8991 C   0  0  0  0  0  0  0  0  0  0  0  0
    6.6501    6.2172    2.9159 O   0  0  0  0  0  0  0  0  0  0  0  0
    6.8245    5.9613    5.1129 N   0  0  0  0  0  0  0  0  0  0  0  0
    7.6197    7.1090    5.2283 C   0  0  0  0  0  0  0  0  0  0  0  0
    8.6148    7.1696    6.1941 C   0  0  0  0  0  0  0  0  0  0  0  0
    9.3999    8.3013    6.3095 C   0  0  0  0  0  0  0  0  0  0  0  0
    9.1961    9.3779    5.4622 C   0  0  0  0  0  0  0  0  0  0  0  0
    9.8221   10.5886    5.3717 O   0  0  0  0  0  0  0  0  0  0  0  0
    9.4714   11.1065    4.0748 C   0  0  1  0  0  0  0  0  0  0  0  0
    8.1995   10.4932    3.7939 O   0  0  0  0  0  0  0  0  0  0  0  0
    8.1983    9.3198    4.4915 C   0  0  0  0  0  0  0  0  0  0  0  0
    7.4163    8.1835    4.3729 C   0  0  0  0  0  0  0  0  0  0  0  0
    4.2550    2.0341    3.1024 C   0  0  0  0  0  0  0  0  0  0  0  0
    3.5421    0.8906    2.7984 C   0  0  0  0  0  0  0  0  0  0  0  0
    0.9963    1.9234   -0.0048 H   0  0  0  0  0  0  0  0  0  0  0  0
   -0.5506    1.9141   -0.8852 H   0  0  0  0  0  0  0  0  0  0  0  0
   -0.5396    1.9097    0.8947 H   0  0  0  0  0  0  0  0  0  0  0  0
   -1.0421   -0.3485    0.0023 H   0  0  0  0  0  0  0  0  0  0  0  0
    0.4938   -0.3348   -0.8972 H   0  0  0  0  0  0  0  0  0  0  0  0
    0.6660   -0.5428    3.2833 H   0  0  0  0  0  0  0  0  0  0  0  0
   -0.7825    0.1787    2.5419 H   0  0  0  0  0  0  0  0  0  0  0  0
   -1.2705   -2.0848    3.4292 H   0  0  0  0  0  0  0  0  0  0  0  0
   -1.4368   -2.0436    1.6575 H   0  0  0  0  0  0  0  0  0  0  0  0
    0.0117   -2.7651    2.3989 H   0  0  0  0  0  0  0  0  0  0  0  0
    3.2825    1.2790   -0.5435 H   0  0  0  0  0  0  0  0  0  0  0  0
    4.5457    3.3230   -0.0095 H   0  0  0  0  0  0  0  0  0  0  0  0
    4.7244    4.3179    4.3506 H   0  0  0  0  0  0  0  0  0  0  0  0
    6.2526    3.4332    4.1262 H   0  0  0  0  0  0  0  0  0  0  0  0
    6.5738    5.4632    5.9065 H   0  0  0  0  0  0  0  0  0  0  0  0
    8.7755    6.3317    6.8563 H   0  0  0  0  0  0  0  0  0  0  0  0
   10.1733    8.3463    7.0619 H   0  0  0  0  0  0  0  0  0  0  0  0
    9.3740   12.1916    4.1093 H   0  0  0  0  0  0  0  0  0  0  0  0
   10.2117   10.8109    3.3314 H   0  0  0  0  0  0  0  0  0  0  0  0
    6.6455    8.1346    3.6179 H   0  0  0  0  0  0  0  0  0  0  0  0
    4.5277    2.2449    4.1260 H   0  0  0  0  0  0  0  0  0  0  0  0
    3.2601    0.2056    3.5843 H   0  0  0  0  0  0  0  0  0  0  0  0
  1  2  1  0
  1 29  1  6
  1 30  1  0
  1 31  1  0
  2  3  1  0
  2 32  1  1
  2 33  1  0
  3  4  1  0
  6  3  1  6
  4  5  1  0
  4 34  1  1
  4 35  1  0
  5 36  1  1
  5 37  1  0
  5 38  1  0
  6  7  2  0
  6  8  2  0
  6  9  1  0
  9 28  2  0
  9 10  1  0
 10 11  2  0
 10 39  1  0
 11 12  1  0
 11 40  1  0
 12 13  1  0
 12 27  2  0
 13 14  1  0
 14 15  1  0
 14 41  1  1
 14 42  1  0
 15 16  2  0
 15 17  1  0
 17 18  1  0
 17 43  1  0
 18 26  2  0
 18 19  1  0
 19 20  2  0
 19 44  1  0
 20 21  1  0
 20 45  1  0
 21 25  2  0
 21 22  1  0
 22 23  1  0
 23 24  1  0
 23 46  1  1
 23 47  1  0
 24 25  1  0
 25 26  1  0
 26 48  1  0
 27 28  1  0
 27 49  1  0
 28 50  1  0
M  END
$$$$
