ZINC000021185450
     RDKit          3D

 55 57  0  0  0  0  0  0  0  0999 V2000
    3.5765   -0.1356    2.6471 C   0  0  1  0  0  0  0  0  0  0  0  0
    3.6397   -0.8231    3.9867 C   0  0  0  0  0  0  0  0  0  0  0  0
    4.7538   -1.5625    4.3324 C   0  0  0  0  0  0  0  0  0  0  0  0
    4.8123   -2.1941    5.5612 C   0  0  0  0  0  0  0  0  0  0  0  0
    3.7565   -2.0872    6.4478 C   0  0  0  0  0  0  0  0  0  0  0  0
    2.6398   -1.3489    6.1083 C   0  0  0  0  0  0  0  0  0  0  0  0
    1.4898   -1.2326    7.0754 C   0  0  1  0  0  0  0  0  0  0  0  0
    2.5801   -0.7091    4.8772 C   0  0  0  0  0  0  0  0  0  0  0  0
    1.4504    0.0401    4.5304 N   0  0  0  0  0  0  0  0  0  0  0  0
    1.5514    1.3736    4.3627 C   0  0  0  0  0  0  0  0  0  0  0  0
    2.6327    1.9157    4.4519 O   0  0  0  0  0  0  0  0  0  0  0  0
    0.3210    2.1909    4.0645 C   0  0  1  0  0  0  0  0  0  0  0  0
    0.7106    3.5808    3.7919 N   0  0  0  0  0  0  0  0  0  0  0  0
    1.6206    3.6564    2.6411 C   0  0  1  0  0  0  0  0  0  0  0  0
    1.8584    5.1260    2.2778 C   0  0  1  0  0  0  0  0  0  0  0  0
    2.3171    5.8365    3.4812 N   0  0  0  0  0  0  0  0  0  0  0  0
    3.6847    6.7697    3.4478 S   0  0  1  0  0  0  0  0  0  0  0  0
    4.1516    6.8454    4.7877 O   0  0  0  0  0  0  0  0  0  0  0  0
    4.4778    6.2810    2.3748 O   0  0  0  0  0  0  0  0  0  0  0  0
    3.1921    8.4010    2.9996 C   0  0  0  0  0  0  0  0  0  0  0  0
    3.1496    8.7689    1.6678 C   0  0  0  0  0  0  0  0  0  0  0  0
    2.7632   10.0487    1.3162 C   0  0  0  0  0  0  0  0  0  0  0  0
    2.4187   10.9605    2.2964 C   0  0  0  0  0  0  0  0  0  0  0  0
    1.9979   12.3559    1.9132 C   0  0  1  0  0  0  0  0  0  0  0  0
    0.6122   12.3896    1.7237 F   0  0  0  0  0  0  0  0  0  0  0  0
    2.3509   13.2461    2.9330 F   0  0  0  0  0  0  0  0  0  0  0  0
    2.6399   12.7273    0.7270 F   0  0  0  0  0  0  0  0  0  0  0  0
    2.4598   10.5922    3.6282 C   0  0  0  0  0  0  0  0  0  0  0  0
    2.8426    9.3112    3.9796 C   0  0  0  0  0  0  0  0  0  0  0  0
    1.5287    5.6965    4.7149 C   0  0  1  0  0  0  0  0  0  0  0  0
    1.3039    4.2044    4.9823 C   0  0  1  0  0  0  0  0  0  0  0  0
    4.0928    0.8226    2.7058 H   0  0  0  0  0  0  0  0  0  0  0  0
    4.0563   -0.7614    1.8946 H   0  0  0  0  0  0  0  0  0  0  0  0
    2.5347    0.0292    2.3721 H   0  0  0  0  0  0  0  0  0  0  0  0
    5.5800   -1.6479    3.6421 H   0  0  0  0  0  0  0  0  0  0  0  0
    5.6843   -2.7723    5.8288 H   0  0  0  0  0  0  0  0  0  0  0  0
    3.8051   -2.5819    7.4066 H   0  0  0  0  0  0  0  0  0  0  0  0
    1.6423   -0.3659    7.7187 H   0  0  0  0  0  0  0  0  0  0  0  0
    0.5591   -1.1139    6.5206 H   0  0  0  0  0  0  0  0  0  0  0  0
    1.4363   -2.1337    7.6863 H   0  0  0  0  0  0  0  0  0  0  0  0
    0.5944   -0.4003    4.4107 H   0  0  0  0  0  0  0  0  0  0  0  0
   -0.1868    1.7783    3.1927 H   0  0  0  0  0  0  0  0  0  0  0  0
   -0.3503    2.1634    4.9228 H   0  0  0  0  0  0  0  0  0  0  0  0
    2.5704    3.1868    2.8971 H   0  0  0  0  0  0  0  0  0  0  0  0
    1.1759    3.1390    1.7911 H   0  0  0  0  0  0  0  0  0  0  0  0
    2.6198    5.1925    1.5008 H   0  0  0  0  0  0  0  0  0  0  0  0
    0.9287    5.5703    1.9224 H   0  0  0  0  0  0  0  0  0  0  0  0
    3.4187    8.0565    0.9020 H   0  0  0  0  0  0  0  0  0  0  0  0
    2.7307   10.3363    0.2757 H   0  0  0  0  0  0  0  0  0  0  0  0
    2.1904   11.3045    4.3940 H   0  0  0  0  0  0  0  0  0  0  0  0
    2.8747    9.0235    5.0200 H   0  0  0  0  0  0  0  0  0  0  0  0
    2.0722    6.1401    5.5491 H   0  0  0  0  0  0  0  0  0  0  0  0
    0.5673    6.1956    4.5937 H   0  0  0  0  0  0  0  0  0  0  0  0
    0.6295    4.0844    5.8301 H   0  0  0  0  0  0  0  0  0  0  0  0
    2.2581    3.7271    5.2056 H   0  0  0  0  0  0  0  0  0  0  0  0
  1  2  1  0
  1 32  1  1
  1 33  1  0
  1 34  1  0
  2  8  2  0
  2  3  1  0
  3  4  2  0
  3 35  1  0
  4  5  1  0
  4 36  1  0
  5  6  2  0
  5 37  1  0
  6  7  1  0
  6  8  1  0
  7 38  1  1
  7 39  1  0
  7 40  1  0
  8  9  1  0
  9 10  1  0
  9 41  1  0
 10 11  2  0
 10 12  1  0
 12 13  1  0
 12 42  1  6
 12 43  1  0
 13 31  1  0
 13 14  1  0
 14 15  1  0
 14 44  1  1
 14 45  1  0
 15 16  1  0
 15 46  1  6
 15 47  1  0
 17 16  1  1
 16 30  1  0
 17 18  2  0
 17 19  2  0
 17 20  1  0
 20 29  2  0
 20 21  1  0
 21 22  2  0
 21 48  1  0
 22 23  1  0
 22 49  1  0
 23 24  1  0
 23 28  2  0
 24 25  1  6
 24 26  1  0
 24 27  1  0
 28 29  1  0
 28 50  1  0
 29 51  1  0
 30 31  1  0
 30 52  1  1
 30 53  1  0
 31 54  1  1
 31 55  1  0
M  END
$$$$
