ZINC000028207365
     RDKit          3D

 53 54  0  0  0  0  0  0  0  0999 V2000
   -0.0178    1.4608    0.0101 C   0  0  1  0  0  0  0  0  0  0  0  0
    0.0021   -0.0041    0.0020 N   0  0  0  0  0  0  0  0  0  0  0  0
    0.0241   -0.7433    1.2666 C   0  0  1  0  0  0  0  0  0  0  0  0
   -0.0004   -0.8243   -1.4366 S   0  0  1  0  0  0  0  0  0  0  0  0
   -0.5247   -2.1160   -1.1611 O   0  0  0  0  0  0  0  0  0  0  0  0
   -0.5660    0.0551   -2.3989 O   0  0  0  0  0  0  0  0  0  0  0  0
    1.6816   -1.0597   -1.9056 C   0  0  0  0  0  0  0  0  0  0  0  0
    2.3224   -0.1085   -2.6779 C   0  0  0  0  0  0  0  0  0  0  0  0
    3.6411   -0.2907   -3.0469 C   0  0  0  0  0  0  0  0  0  0  0  0
    4.3226   -1.4291   -2.6417 C   0  0  0  0  0  0  0  0  0  0  0  0
    5.6201   -1.6104   -3.0031 O   0  0  0  0  0  0  0  0  0  0  0  0
    6.2587   -2.8058   -2.5500 C   0  0  1  0  0  0  0  0  0  0  0  0
    7.6821   -2.8332   -3.0443 C   0  0  0  0  0  0  0  0  0  0  0  0
    8.1077   -1.9191   -3.7182 O   0  0  0  0  0  0  0  0  0  0  0  0
    8.4821   -3.8735   -2.7374 N   0  0  0  0  0  0  0  0  0  0  0  0
    9.8658   -3.9002   -3.2179 C   0  0  1  0  0  0  0  0  0  0  0  0
   10.7565   -3.1181   -2.2508 C   0  0  1  0  0  0  0  0  0  0  0  0
   12.2232   -3.4667   -2.5131 C   0  0  1  0  0  0  0  0  0  0  0  0
   12.6979   -2.7535   -3.7808 C   0  0  1  0  0  0  0  0  0  0  0  0
   12.1395   -3.4731   -5.0100 C   0  0  1  0  0  0  0  0  0  0  0  0
   12.2901   -4.9847   -4.8292 C   0  0  1  0  0  0  0  0  0  0  0  0
   10.9059   -5.6234   -4.6981 C   0  0  1  0  0  0  0  0  0  0  0  0
   10.3493   -5.3493   -3.2995 C   0  0  1  0  0  0  0  0  0  0  0  0
    3.6776   -2.3818   -1.8665 C   0  0  0  0  0  0  0  0  0  0  0  0
    2.3603   -2.1926   -1.4960 C   0  0  0  0  0  0  0  0  0  0  0  0
    1.0048    1.8381    0.0023 H   0  0  0  0  0  0  0  0  0  0  0  0
   -0.5450    1.8219   -0.8730 H   0  0  0  0  0  0  0  0  0  0  0  0
   -0.5280    1.8123    0.9069 H   0  0  0  0  0  0  0  0  0  0  0  0
   -0.9979   -0.9406    1.5900 H   0  0  0  0  0  0  0  0  0  0  0  0
    0.5496   -1.6879    1.1262 H   0  0  0  0  0  0  0  0  0  0  0  0
    0.5371   -0.1514    2.0246 H   0  0  0  0  0  0  0  0  0  0  0  0
    1.7914    0.7776   -2.9931 H   0  0  0  0  0  0  0  0  0  0  0  0
    4.1409    0.4522   -3.6507 H   0  0  0  0  0  0  0  0  0  0  0  0
    6.2520   -2.8307   -1.4603 H   0  0  0  0  0  0  0  0  0  0  0  0
    5.7231   -3.6729   -2.9365 H   0  0  0  0  0  0  0  0  0  0  0  0
    8.1417   -4.6046   -2.1984 H   0  0  0  0  0  0  0  0  0  0  0  0
    9.9157   -3.4445   -4.2068 H   0  0  0  0  0  0  0  0  0  0  0  0
   10.6047   -2.0491   -2.4006 H   0  0  0  0  0  0  0  0  0  0  0  0
   10.4983   -3.3815   -1.2251 H   0  0  0  0  0  0  0  0  0  0  0  0
   12.8300   -3.1455   -1.6665 H   0  0  0  0  0  0  0  0  0  0  0  0
   12.3228   -4.5443   -2.6435 H   0  0  0  0  0  0  0  0  0  0  0  0
   12.3445   -1.7224   -3.7716 H   0  0  0  0  0  0  0  0  0  0  0  0
   13.7873   -2.7639   -3.8173 H   0  0  0  0  0  0  0  0  0  0  0  0
   11.0848   -3.2247   -5.1284 H   0  0  0  0  0  0  0  0  0  0  0  0
   12.6888   -3.1568   -5.8968 H   0  0  0  0  0  0  0  0  0  0  0  0
   12.8036   -5.4047   -5.6941 H   0  0  0  0  0  0  0  0  0  0  0  0
   12.8703   -5.1869   -3.9289 H   0  0  0  0  0  0  0  0  0  0  0  0
   10.2367   -5.1972   -5.4455 H   0  0  0  0  0  0  0  0  0  0  0  0
   10.9859   -6.6994   -4.8530 H   0  0  0  0  0  0  0  0  0  0  0  0
   11.1317   -5.5135   -2.5585 H   0  0  0  0  0  0  0  0  0  0  0  0
    9.5150   -6.0224   -3.1022 H   0  0  0  0  0  0  0  0  0  0  0  0
    4.2059   -3.2690   -1.5500 H   0  0  0  0  0  0  0  0  0  0  0  0
    1.8578   -2.9338   -0.8923 H   0  0  0  0  0  0  0  0  0  0  0  0
  1  2  1  0
  1 26  1  6
  1 27  1  0
  1 28  1  0
  2  3  1  0
  4  2  1  1
  3 29  1  1
  3 30  1  0
  3 31  1  0
  4  5  2  0
  4  6  2  0
  4  7  1  0
  7 25  2  0
  7  8  1  0
  8  9  2  0
  8 32  1  0
  9 10  1  0
  9 33  1  0
 10 11  1  0
 10 24  2  0
 11 12  1  0
 12 13  1  0
 12 34  1  1
 12 35  1  0
 13 14  2  0
 13 15  1  0
 15 16  1  0
 15 36  1  0
 16 23  1  0
 16 17  1  0
 16 37  1  6
 17 18  1  0
 17 38  1  1
 17 39  1  0
 18 19  1  0
 18 40  1  1
 18 41  1  0
 19 20  1  0
 19 42  1  1
 19 43  1  0
 20 21  1  0
 20 44  1  6
 20 45  1  0
 21 22  1  0
 21 46  1  6
 21 47  1  0
 22 23  1  0
 22 48  1  6
 22 49  1  0
 23 50  1  1
 23 51  1  0
 24 25  1  0
 24 52  1  0
 25 53  1  0
M  END
$$$$
