ZINC000096319995
     RDKit          3D

 48 50  0  0  0  0  0  0  0  0999 V2000
    0.0146    1.5034    0.0107 C   0  0  1  0  0  0  0  0  0  0  0  0
    0.0239   -0.0035    0.0023 C   0  0  0  0  0  0  0  0  0  0  0  0
    0.0232   -0.7852   -1.1040 C   0  0  0  0  0  0  0  0  0  0  0  0
    0.0121   -0.2206   -2.7731 S   0  0  1  0  0  0  0  0  0  0  0  0
   -0.5294   -1.2792   -3.5512 O   0  0  0  0  0  0  0  0  0  0  0  0
   -0.5401    1.0885   -2.7502 O   0  0  0  0  0  0  0  0  0  0  0  0
    1.5908   -0.0539   -3.2446 N   0  0  0  0  0  0  0  0  0  0  0  0
    2.4045    1.1620   -3.0999 C   0  0  1  0  0  0  0  0  0  0  0  0
    3.7938    0.8576   -3.6988 C   0  0  1  0  0  0  0  0  0  0  0  0
    3.5067   -0.3280   -4.6576 C   0  0  1  0  0  0  0  0  0  0  0  0
    2.4151   -1.1023   -3.8731 C   0  0  1  0  0  0  0  0  0  0  0  0
    0.0335   -2.1197   -0.6864 C   0  0  0  0  0  0  0  0  0  0  0  0
    0.0370   -3.3363   -1.5757 C   0  0  1  0  0  0  0  0  0  0  0  0
    0.0404   -2.1126    0.6925 C   0  0  0  0  0  0  0  0  0  0  0  0
    0.0521   -3.2910    1.5653 C   0  0  0  0  0  0  0  0  0  0  0  0
    0.0566   -4.4073    1.0805 O   0  0  0  0  0  0  0  0  0  0  0  0
    0.0579   -3.1378    2.9043 N   0  0  0  0  0  0  0  0  0  0  0  0
   -0.0286   -4.2581    3.7366 C   0  0  0  0  0  0  0  0  0  0  0  0
   -0.7256   -4.1822    4.9356 C   0  0  0  0  0  0  0  0  0  0  0  0
   -0.8095   -5.2907    5.7551 C   0  0  0  0  0  0  0  0  0  0  0  0
   -0.2003   -6.4751    5.3833 C   0  0  0  0  0  0  0  0  0  0  0  0
   -0.2935   -7.6825    6.2802 C   0  0  1  0  0  0  0  0  0  0  0  0
   -1.4261   -8.4299    5.9399 F   0  0  0  0  0  0  0  0  0  0  0  0
    0.8509   -8.4713    6.1209 F   0  0  0  0  0  0  0  0  0  0  0  0
   -0.3919   -7.2672    7.6125 F   0  0  0  0  0  0  0  0  0  0  0  0
    0.4940   -6.5542    4.1899 C   0  0  0  0  0  0  0  0  0  0  0  0
    0.5773   -5.4509    3.3634 C   0  0  0  0  0  0  0  0  0  0  0  0
    0.0402   -0.7979    1.1004 N   0  0  0  0  0  0  0  0  0  0  0  0
    1.0400    1.8731    0.0025 H   0  0  0  0  0  0  0  0  0  0  0  0
   -0.5103    1.8685   -0.8721 H   0  0  0  0  0  0  0  0  0  0  0  0
   -0.4925    1.8586    0.9077 H   0  0  0  0  0  0  0  0  0  0  0  0
    1.9396    1.9857   -3.6417 H   0  0  0  0  0  0  0  0  0  0  0  0
    2.5036    1.4185   -2.0451 H   0  0  0  0  0  0  0  0  0  0  0  0
    4.1724    1.7175   -4.2514 H   0  0  0  0  0  0  0  0  0  0  0  0
    4.4939    0.5612   -2.9177 H   0  0  0  0  0  0  0  0  0  0  0  0
    3.1265    0.0272   -5.6153 H   0  0  0  0  0  0  0  0  0  0  0  0
    4.3961   -0.9428   -4.7958 H   0  0  0  0  0  0  0  0  0  0  0  0
    2.8719   -1.7384   -3.1151 H   0  0  0  0  0  0  0  0  0  0  0  0
    1.8090   -1.6987   -4.5551 H   0  0  0  0  0  0  0  0  0  0  0  0
    1.0654   -3.6231   -1.7950 H   0  0  0  0  0  0  0  0  0  0  0  0
   -0.4693   -4.1580   -1.0693 H   0  0  0  0  0  0  0  0  0  0  0  0
   -0.4827   -3.1077   -2.5062 H   0  0  0  0  0  0  0  0  0  0  0  0
    0.1221   -2.2504    3.2906 H   0  0  0  0  0  0  0  0  0  0  0  0
   -1.2010   -3.2573    5.2269 H   0  0  0  0  0  0  0  0  0  0  0  0
   -1.3513   -5.2324    6.6876 H   0  0  0  0  0  0  0  0  0  0  0  0
    0.9684   -7.4807    3.9022 H   0  0  0  0  0  0  0  0  0  0  0  0
    1.1197   -5.5133    2.4315 H   0  0  0  0  0  0  0  0  0  0  0  0
    0.0448   -0.4911    2.0206 H   0  0  0  0  0  0  0  0  0  0  0  0
  1  2  1  0
  1 29  1  6
  1 30  1  0
  1 31  1  0
  2 28  1  0
  2  3  2  0
  3  4  1  0
  3 12  1  0
  4  5  2  0
  4  6  2  0
  4  7  1  6
  7 11  1  0
  7  8  1  0
  8  9  1  0
  8 32  1  6
  8 33  1  0
  9 10  1  0
  9 34  1  6
  9 35  1  0
 10 11  1  0
 10 36  1  6
 10 37  1  0
 11 38  1  1
 11 39  1  0
 12 13  1  0
 12 14  2  0
 13 40  1  6
 13 41  1  0
 13 42  1  0
 14 15  1  0
 14 28  1  0
 15 16  2  0
 15 17  1  0
 17 18  1  0
 17 43  1  0
 18 27  2  0
 18 19  1  0
 19 20  2  0
 19 44  1  0
 20 21  1  0
 20 45  1  0
 21 22  1  0
 21 26  2  0
 22 23  1  6
 22 24  1  0
 22 25  1  0
 26 27  1  0
 26 46  1  0
 27 47  1  0
 28 48  1  0
M  END
$$$$
