ZINC000027100741
     RDKit          3D

 57 60  0  0  1  0  0  0  0  0999 V2000
   -0.1277   -6.9193   -2.0698 C   0  0  1  0  0  0  0  0  0  0  0  0
   -0.3689   -7.0965   -0.5929 C   0  0  0  0  0  0  0  0  0  0  0  0
   -0.8067   -8.3134   -0.1053 C   0  0  0  0  0  0  0  0  0  0  0  0
   -1.0280   -8.4760    1.2498 C   0  0  0  0  0  0  0  0  0  0  0  0
   -0.8111   -7.4217    2.1168 C   0  0  0  0  0  0  0  0  0  0  0  0
   -0.3723   -6.2047    1.6292 C   0  0  0  0  0  0  0  0  0  0  0  0
   -0.1362   -5.0550    2.5745 C   0  0  1  0  0  0  0  0  0  0  0  0
    1.2501   -5.0881    3.0470 N   0  0  0  0  0  0  0  0  0  0  0  0
    1.6912   -4.1496    3.9078 C   0  0  0  0  0  0  0  0  0  0  0  0
    0.9405   -3.2776    4.2913 O   0  0  0  0  0  0  0  0  0  0  0  0
    3.1173   -4.1836    4.3939 C   0  0  1  0  0  0  0  0  0  0  0  0
    3.6952   -4.8853    3.7923 H   0  0  0  0  0  0  0  0  0  0  0  0
    3.7313   -2.7882    4.2927 C   0  0  1  0  0  0  0  0  0  0  0  0
    5.0303   -2.7179    5.0514 C   0  0  0  0  0  0  0  0  0  0  0  0
    5.9131   -1.6961    4.7243 C   0  0  0  0  0  0  0  0  0  0  0  0
    7.1161   -1.5689    5.3873 C   0  0  0  0  0  0  0  0  0  0  0  0
    7.4480   -2.4635    6.3873 C   0  0  0  0  0  0  0  0  0  0  0  0
    6.5747   -3.4815    6.7120 C   0  0  0  0  0  0  0  0  0  0  0  0
    5.3666   -3.6139    6.0417 C   0  0  0  0  0  0  0  0  0  0  0  0
    4.4702   -4.7637    6.4276 C   0  0  1  0  0  0  0  0  0  0  0  0
    3.1520   -4.5933    5.8076 N   0  0  0  0  0  0  0  0  0  0  0  0
    1.7580   -4.8483    6.6643 S   0  0  1  0  0  0  0  0  0  0  0  0
    0.7242   -5.0240    5.7054 O   0  0  0  0  0  0  0  0  0  0  0  0
    2.0689   -5.8153    7.6580 O   0  0  0  0  0  0  0  0  0  0  0  0
    1.3921   -3.3533    7.5221 C   0  0  0  0  0  0  0  0  0  0  0  0
    1.8974   -3.1434    8.7916 C   0  0  0  0  0  0  0  0  0  0  0  0
    1.6104   -1.9705    9.4645 C   0  0  0  0  0  0  0  0  0  0  0  0
    0.8185   -1.0073    8.8678 C   0  0  0  0  0  0  0  0  0  0  0  0
    0.5052    0.2711    9.6016 C   0  0  1  0  0  0  0  0  0  0  0  0
    1.4827    1.2282    9.3092 F   0  0  0  0  0  0  0  0  0  0  0  0
   -0.7475    0.7456    9.1980 F   0  0  0  0  0  0  0  0  0  0  0  0
    0.4895    0.0264   10.9790 F   0  0  0  0  0  0  0  0  0  0  0  0
    0.3144   -1.2166    7.5978 C   0  0  0  0  0  0  0  0  0  0  0  0
    0.6046   -2.3878    6.9233 C   0  0  0  0  0  0  0  0  0  0  0  0
   -0.1469   -6.0434    0.2751 C   0  0  0  0  0  0  0  0  0  0  0  0
    0.9039   -7.1825   -2.3037 H   0  0  0  0  0  0  0  0  0  0  0  0
   -0.8035   -7.5667   -2.6286 H   0  0  0  0  0  0  0  0  0  0  0  0
   -0.3090   -5.8804   -2.3455 H   0  0  0  0  0  0  0  0  0  0  0  0
   -0.9762   -9.1372   -0.7828 H   0  0  0  0  0  0  0  0  0  0  0  0
   -1.3708   -9.4267    1.6307 H   0  0  0  0  0  0  0  0  0  0  0  0
   -0.9846   -7.5485    3.1752 H   0  0  0  0  0  0  0  0  0  0  0  0
   -0.3209   -4.1143    2.0558 H   0  0  0  0  0  0  0  0  0  0  0  0
   -0.8122   -5.1396    3.4254 H   0  0  0  0  0  0  0  0  0  0  0  0
    1.8505   -5.7855    2.7403 H   0  0  0  0  0  0  0  0  0  0  0  0
    3.9152   -2.5526    3.2445 H   0  0  0  0  0  0  0  0  0  0  0  0
    3.0346   -2.0591    4.7064 H   0  0  0  0  0  0  0  0  0  0  0  0
    5.6553   -0.9955    3.9438 H   0  0  0  0  0  0  0  0  0  0  0  0
    7.7970   -0.7725    5.1254 H   0  0  0  0  0  0  0  0  0  0  0  0
    8.3870   -2.3665    6.9120 H   0  0  0  0  0  0  0  0  0  0  0  0
    6.8332   -4.1804    7.4938 H   0  0  0  0  0  0  0  0  0  0  0  0
    4.9125   -5.6992    6.0851 H   0  0  0  0  0  0  0  0  0  0  0  0
    4.3610   -4.7904    7.5118 H   0  0  0  0  0  0  0  0  0  0  0  0
    2.5160   -3.8959    9.2578 H   0  0  0  0  0  0  0  0  0  0  0  0
    2.0045   -1.8069   10.4566 H   0  0  0  0  0  0  0  0  0  0  0  0
   -0.3040   -0.4639    7.1314 H   0  0  0  0  0  0  0  0  0  0  0  0
    0.2107   -2.5513    5.9310 H   0  0  0  0  0  0  0  0  0  0  0  0
    0.1958   -5.0927   -0.1059 H   0  0  0  0  0  0  0  0  0  0  0  0
  1  2  1  0
  1 36  1  1
  1 37  1  0
  1 38  1  0
  2 35  2  0
  2  3  1  0
  3  4  2  0
  3 39  1  0
  4  5  1  0
  4 40  1  0
  5  6  2  0
  5 41  1  0
  6  7  1  0
  6 35  1  0
  7  8  1  0
  7 42  1  6
  7 43  1  0
  8  9  1  0
  8 44  1  0
  9 10  2  0
  9 11  1  0
 11 12  1  6
 11 21  1  0
 11 13  1  0
 13 14  1  0
 13 45  1  6
 13 46  1  0
 14 19  2  0
 14 15  1  0
 15 16  2  0
 15 47  1  0
 16 17  1  0
 16 48  1  0
 17 18  2  0
 17 49  1  0
 18 19  1  0
 18 50  1  0
 19 20  1  0
 20 21  1  0
 20 51  1  6
 20 52  1  0
 22 21  1  6
 22 23  2  0
 22 24  2  0
 22 25  1  0
 25 34  2  0
 25 26  1  0
 26 27  2  0
 26 53  1  0
 27 28  1  0
 27 54  1  0
 28 29  1  0
 28 33  2  0
 29 30  1  1
 29 31  1  0
 29 32  1  0
 33 34  1  0
 33 55  1  0
 34 56  1  0
 35 57  1  0
M  END
$$$$
