ZINC000009510254
     RDKit          3D

 50 52  0  0  0  0  0  0  0  0999 V2000
   -0.0076    1.4925    0.0037 C   0  0  1  0  0  0  0  0  0  0  0  0
    0.0162   -0.0143    0.0019 C   0  0  0  0  0  0  0  0  0  0  0  0
    0.0285   -0.7039   -1.1943 C   0  0  0  0  0  0  0  0  0  0  0  0
    0.0508   -2.0868   -1.1968 C   0  0  0  0  0  0  0  0  0  0  0  0
    0.0609   -2.7833   -0.0025 C   0  0  0  0  0  0  0  0  0  0  0  0
    0.0899   -4.5450   -0.0113 S   0  0  1  0  0  0  0  0  0  0  0  0
   -0.4491   -4.9614    1.2358 O   0  0  0  0  0  0  0  0  0  0  0  0
   -0.4465   -4.9489   -1.2636 O   0  0  0  0  0  0  0  0  0  0  0  0
    1.6796   -5.0091   -0.0119 N   0  0  0  0  0  0  0  0  0  0  0  0
    2.4012   -5.2067   -1.2764 C   0  0  1  0  0  0  0  0  0  0  0  0
    3.6803   -4.3640   -1.2510 C   0  0  1  0  0  0  0  0  0  0  0  0
    4.4927   -4.7147   -0.0023 C   0  0  1  0  0  0  0  0  0  0  0  0
    3.6743   -4.3882    1.2491 C   0  0  1  0  0  0  0  0  0  0  0  0
    2.3968   -5.2252    1.2520 C   0  0  1  0  0  0  0  0  0  0  0  0
    0.0487   -2.0995    1.1976 C   0  0  0  0  0  0  0  0  0  0  0  0
    0.0316   -0.7109    1.2037 C   0  0  0  0  0  0  0  0  0  0  0  0
    0.0193   -0.0155    2.4169 N   0  0  0  0  0  0  0  0  0  0  0  0
   -0.6423   -0.5211    3.4767 C   0  0  0  0  0  0  0  0  0  0  0  0
   -1.1590   -1.6190    3.4034 O   0  0  0  0  0  0  0  0  0  0  0  0
   -0.7396    0.2594    4.7282 C   0  0  0  0  0  0  0  0  0  0  0  0
   -0.1523    1.5229    4.8139 C   0  0  0  0  0  0  0  0  0  0  0  0
   -0.2468    2.2460    5.9849 C   0  0  0  0  0  0  0  0  0  0  0  0
   -0.9214    1.7214    7.0730 C   0  0  0  0  0  0  0  0  0  0  0  0
   -1.0206    2.5172    8.3490 C   0  0  1  0  0  0  0  0  0  0  0  0
   -2.1710    3.3125    8.3144 F   0  0  0  0  0  0  0  0  0  0  0  0
   -1.0904    1.6433    9.4393 F   0  0  0  0  0  0  0  0  0  0  0  0
    0.1076    3.3344    8.4778 F   0  0  0  0  0  0  0  0  0  0  0  0
   -1.5058    0.4697    6.9948 C   0  0  0  0  0  0  0  0  0  0  0  0
   -1.4241   -0.2613    5.8277 C   0  0  0  0  0  0  0  0  0  0  0  0
    1.0142    1.8721    0.0004 H   0  0  0  0  0  0  0  0  0  0  0  0
   -0.5303    1.8487   -0.8839 H   0  0  0  0  0  0  0  0  0  0  0  0
   -0.5238    1.8467    0.8960 H   0  0  0  0  0  0  0  0  0  0  0  0
    0.0203   -0.1629   -2.1290 H   0  0  0  0  0  0  0  0  0  0  0  0
    0.0600   -2.6238   -2.1338 H   0  0  0  0  0  0  0  0  0  0  0  0
    2.6595   -6.2596   -1.3891 H   0  0  0  0  0  0  0  0  0  0  0  0
    1.7725   -4.8914   -2.1091 H   0  0  0  0  0  0  0  0  0  0  0  0
    4.2727   -4.5749   -2.1414 H   0  0  0  0  0  0  0  0  0  0  0  0
    3.4187   -3.3061   -1.2296 H   0  0  0  0  0  0  0  0  0  0  0  0
    4.7328   -5.7778   -0.0120 H   0  0  0  0  0  0  0  0  0  0  0  0
    5.4153   -4.1343    0.0056 H   0  0  0  0  0  0  0  0  0  0  0  0
    4.2623   -4.6163    2.1381 H   0  0  0  0  0  0  0  0  0  0  0  0
    3.4127   -3.3301    1.2469 H   0  0  0  0  0  0  0  0  0  0  0  0
    1.7652   -4.9250    2.0881 H   0  0  0  0  0  0  0  0  0  0  0  0
    2.6519   -6.2809    1.3448 H   0  0  0  0  0  0  0  0  0  0  0  0
    0.0566   -2.6441    2.1302 H   0  0  0  0  0  0  0  0  0  0  0  0
    0.4869    0.8307    2.4957 H   0  0  0  0  0  0  0  0  0  0  0  0
    0.3752    1.9332    3.9655 H   0  0  0  0  0  0  0  0  0  0  0  0
    0.2071    3.2237    6.0525 H   0  0  0  0  0  0  0  0  0  0  0  0
   -2.0306    0.0659    7.8479 H   0  0  0  0  0  0  0  0  0  0  0  0
   -1.8806   -1.2382    5.7679 H   0  0  0  0  0  0  0  0  0  0  0  0
  1  2  1  0
  1 30  1  6
  1 31  1  0
  1 32  1  0
  2 16  2  0
  2  3  1  0
  3  4  2  0
  3 33  1  0
  4  5  1  0
  4 34  1  0
  5  6  1  0
  5 15  2  0
  6  7  2  0
  6  8  2  0
  6  9  1  6
  9 14  1  0
  9 10  1  0
 10 11  1  0
 10 35  1  6
 10 36  1  0
 11 12  1  0
 11 37  1  6
 11 38  1  0
 12 13  1  0
 12 39  1  6
 12 40  1  0
 13 14  1  0
 13 41  1  1
 13 42  1  0
 14 43  1  1
 14 44  1  0
 15 16  1  0
 15 45  1  0
 16 17  1  0
 17 18  1  0
 17 46  1  0
 18 19  2  0
 18 20  1  0
 20 29  2  0
 20 21  1  0
 21 22  2  0
 21 47  1  0
 22 23  1  0
 22 48  1  0
 23 24  1  0
 23 28  2  0
 24 25  1  6
 24 26  1  0
 24 27  1  0
 28 29  1  0
 28 49  1  0
 29 50  1  0
M  END
$$$$
