ZINC000072366081
     RDKit          3D

 34 35  0  0  1  0  0  0  0  0999 V2000
   -1.5280    1.0411    1.0721 C   0  0  1  0  0  0  0  0  0  0  0  0
   -0.9558   -0.2956    0.6762 C   0  0  0  0  0  0  0  0  0  0  0  0
   -0.2667   -0.9158    1.4581 O   0  0  0  0  0  0  0  0  0  0  0  0
   -1.2098   -0.8019   -0.5467 N   0  0  0  0  0  0  0  0  0  0  0  0
   -1.9476   -0.0188   -1.5496 C   0  0  1  0  0  0  0  0  0  0  0  0
   -1.1434   -0.0175   -2.8540 C   0  0  1  0  0  0  0  0  0  0  0  0
   -0.8457   -1.4023   -3.2434 N   0  0  0  0  0  0  0  0  0  0  0  0
    0.0005   -2.0669   -2.2433 C   0  0  1  0  0  0  0  0  0  0  0  0
   -0.7515   -2.1498   -0.9159 C   0  0  1  0  0  0  0  0  0  0  0  0
   -1.6145   -2.8066   -1.0244 H   0  0  0  0  0  0  0  0  0  0  0  0
    0.1645   -2.6898    0.1520 C   0  0  0  0  0  0  0  0  0  0  0  0
    1.3624   -2.0546    0.4212 C   0  0  0  0  0  0  0  0  0  0  0  0
    2.2026   -2.5499    1.4007 C   0  0  0  0  0  0  0  0  0  0  0  0
    1.8448   -3.6803    2.1114 C   0  0  0  0  0  0  0  0  0  0  0  0
    2.7610   -4.2206    3.1789 C   0  0  1  0  0  0  0  0  0  0  0  0
    2.4431   -3.6325    4.4078 F   0  0  0  0  0  0  0  0  0  0  0  0
    2.6029   -5.6076    3.2710 F   0  0  0  0  0  0  0  0  0  0  0  0
    4.0877   -3.9234    2.8491 F   0  0  0  0  0  0  0  0  0  0  0  0
    0.6463   -4.3148    1.8432 C   0  0  0  0  0  0  0  0  0  0  0  0
   -0.1957   -3.8172    0.8663 C   0  0  0  0  0  0  0  0  0  0  0  0
   -0.7162    1.7501    1.2348 H   0  0  0  0  0  0  0  0  0  0  0  0
   -2.1771    1.4083    0.2771 H   0  0  0  0  0  0  0  0  0  0  0  0
   -2.1046    0.9319    1.9906 H   0  0  0  0  0  0  0  0  0  0  0  0
   -2.9240   -0.4716   -1.7219 H   0  0  0  0  0  0  0  0  0  0  0  0
   -2.0727    1.0045   -1.1956 H   0  0  0  0  0  0  0  0  0  0  0  0
   -1.7255    0.4641   -3.6397 H   0  0  0  0  0  0  0  0  0  0  0  0
   -0.2109    0.5271   -2.7059 H   0  0  0  0  0  0  0  0  0  0  0  0
   -1.6947   -1.9237   -3.4025 H   0  0  0  0  0  0  0  0  0  0  0  0
    0.2480   -3.0716   -2.5860 H   0  0  0  0  0  0  0  0  0  0  0  0
    0.9171   -1.4937   -2.1036 H   0  0  0  0  0  0  0  0  0  0  0  0
    1.6420   -1.1715   -0.1341 H   0  0  0  0  0  0  0  0  0  0  0  0
    3.1388   -2.0540    1.6105 H   0  0  0  0  0  0  0  0  0  0  0  0
    0.3665   -5.1977    2.3987 H   0  0  0  0  0  0  0  0  0  0  0  0
   -1.1321   -4.3129    0.6567 H   0  0  0  0  0  0  0  0  0  0  0  0
  1  2  1  0
  1 21  1  1
  1 22  1  0
  1 23  1  0
  2  3  2  0
  2  4  1  0
  4  9  1  0
  4  5  1  0
  5  6  1  0
  5 24  1  6
  5 25  1  0
  6  7  1  0
  6 26  1  6
  6 27  1  0
  7  8  1  0
  7 28  1  0
  8  9  1  0
  8 29  1  6
  8 30  1  0
  9 10  1  6
  9 11  1  0
 11 20  2  0
 11 12  1  0
 12 13  2  0
 12 31  1  0
 13 14  1  0
 13 32  1  0
 14 15  1  0
 14 19  2  0
 15 16  1  1
 15 17  1  0
 15 18  1  0
 19 20  1  0
 19 33  1  0
 20 34  1  0
M  END
$$$$
