ZINC000408609488
     RDKit          3D

 49 49  0  0  1  0  0  0  0  0999 V2000
   -0.0187    1.5258    0.0104 C   0  0  1  0  0  0  0  0  0  0  0  0
    0.0021   -0.0041    0.0020 C   0  0  1  0  0  0  0  0  0  0  0  0
    0.7421   -0.5109    1.2415 C   0  0  2  0  0  0  0  0  0  0  0  0
    1.7350   -0.0630    1.2804 H   0  0  0  0  0  0  0  0  0  0  0  0
    0.8719   -2.0337    1.1708 C   0  0  1  0  0  0  0  0  0  0  0  0
   -0.0083   -0.1401    2.4439 N   0  0  0  0  0  0  0  0  0  0  0  0
    0.6303   -0.0111    3.6237 C   0  0  0  0  0  0  0  0  0  0  0  0
    1.8262   -0.2020    3.6901 O   0  0  0  0  0  0  0  0  0  0  0  0
   -0.1416    0.3704    4.8606 C   0  0  1  0  0  0  0  0  0  0  0  0
    0.7500    0.4430    5.9750 O   0  0  0  0  0  0  0  0  0  0  0  0
    0.2100    0.7776    7.1763 C   0  0  0  0  0  0  0  0  0  0  0  0
   -1.1510    1.0254    7.2816 C   0  0  0  0  0  0  0  0  0  0  0  0
   -1.6975    1.3649    8.5040 C   0  0  0  0  0  0  0  0  0  0  0  0
   -0.8893    1.4585    9.6220 C   0  0  0  0  0  0  0  0  0  0  0  0
   -1.5895    1.8924   11.1796 S   0  0  1  0  0  0  0  0  0  0  0  0
   -0.5323    2.4380   11.9567 O   0  0  0  0  0  0  0  0  0  0  0  0
   -2.7905    2.5974   10.8972 O   0  0  0  0  0  0  0  0  0  0  0  0
   -2.0386    0.4833   11.9247 N   0  0  0  0  0  0  0  0  0  0  0  0
   -1.0910   -0.2209   12.7921 C   0  0  1  0  0  0  0  0  0  0  0  0
   -1.3244    0.1947   14.2460 C   0  0  1  0  0  0  0  0  0  0  0  0
   -3.3835   -0.0590   11.7166 C   0  0  1  0  0  0  0  0  0  0  0  0
   -3.3474   -1.0938   10.5902 C   0  0  1  0  0  0  0  0  0  0  0  0
    0.4673    1.2116    9.5198 C   0  0  0  0  0  0  0  0  0  0  0  0
    1.0178    0.8666    8.3007 C   0  0  0  0  0  0  0  0  0  0  0  0
    1.0039    1.9031    0.0027 H   0  0  0  0  0  0  0  0  0  0  0  0
   -0.5459    1.8868   -0.8726 H   0  0  0  0  0  0  0  0  0  0  0  0
   -0.5289    1.8773    0.9072 H   0  0  0  0  0  0  0  0  0  0  0  0
   -1.0205   -0.3814    0.0098 H   0  0  0  0  0  0  0  0  0  0  0  0
    0.5123   -0.3556   -0.8948 H   0  0  0  0  0  0  0  0  0  0  0  0
    1.4302   -2.3096    0.2763 H   0  0  0  0  0  0  0  0  0  0  0  0
    1.3991   -2.3948    2.0539 H   0  0  0  0  0  0  0  0  0  0  0  0
   -0.1210   -2.4817    1.1320 H   0  0  0  0  0  0  0  0  0  0  0  0
   -0.9647    0.0126    2.3909 H   0  0  0  0  0  0  0  0  0  0  0  0
   -0.6138    1.3411    4.7092 H   0  0  0  0  0  0  0  0  0  0  0  0
   -0.9077   -0.3798    5.0565 H   0  0  0  0  0  0  0  0  0  0  0  0
   -1.7826    0.9531    6.4085 H   0  0  0  0  0  0  0  0  0  0  0  0
   -2.7570    1.5579    8.5865 H   0  0  0  0  0  0  0  0  0  0  0  0
   -1.2383   -1.2964   12.6936 H   0  0  0  0  0  0  0  0  0  0  0  0
   -0.0723    0.0346   12.5003 H   0  0  0  0  0  0  0  0  0  0  0  0
   -1.1771    1.2702   14.3445 H   0  0  0  0  0  0  0  0  0  0  0  0
   -2.3431   -0.0607   14.5378 H   0  0  0  0  0  0  0  0  0  0  0  0
   -0.6194   -0.3292   14.8913 H   0  0  0  0  0  0  0  0  0  0  0  0
   -3.7301   -0.5333   12.6347 H   0  0  0  0  0  0  0  0  0  0  0  0
   -4.0632    0.7490   11.4460 H   0  0  0  0  0  0  0  0  0  0  0  0
   -4.3480   -1.4973   10.4353 H   0  0  0  0  0  0  0  0  0  0  0  0
   -3.0007   -0.6196    9.6720 H   0  0  0  0  0  0  0  0  0  0  0  0
   -2.6677   -1.9018   10.8608 H   0  0  0  0  0  0  0  0  0  0  0  0
    1.0964    1.2850   10.3946 H   0  0  0  0  0  0  0  0  0  0  0  0
    2.0775    0.6738    8.2214 H   0  0  0  0  0  0  0  0  0  0  0  0
  1  2  1  0
  1 25  1  6
  1 26  1  0
  1 27  1  0
  2  3  1  0
  2 28  1  1
  2 29  1  0
  3  4  1  1
  3  5  1  0
  3  6  1  0
  5 30  1  6
  5 31  1  0
  5 32  1  0
  6  7  1  0
  6 33  1  0
  7  8  2  0
  7  9  1  0
  9 10  1  0
  9 34  1  6
  9 35  1  0
 10 11  1  0
 11 24  2  0
 11 12  1  0
 12 13  2  0
 12 36  1  0
 13 14  1  0
 13 37  1  0
 14 15  1  0
 14 23  2  0
 15 16  2  0
 15 17  2  0
 15 18  1  1
 18 19  1  0
 18 21  1  0
 19 20  1  0
 19 38  1  1
 19 39  1  0
 20 40  1  6
 20 41  1  0
 20 42  1  0
 21 22  1  0
 21 43  1  1
 21 44  1  0
 22 45  1  6
 22 46  1  0
 22 47  1  0
 23 24  1  0
 23 48  1  0
 24 49  1  0
M  END
$$$$
