ZINC000010301500
     RDKit          3D

 54 56  0  0  0  0  0  0  0  0999 V2000
   -3.7219  -12.3623   -5.0469 C   0  0  1  0  0  0  0  0  0  0  0  0
   -3.8018  -11.1464   -4.1218 C   0  0  1  0  0  0  0  0  0  0  0  0
   -2.4982  -10.8414   -3.6223 O   0  0  0  0  0  0  0  0  0  0  0  0
   -2.3929   -9.7803   -2.7797 C   0  0  0  0  0  0  0  0  0  0  0  0
   -3.5219   -9.0514   -2.4361 C   0  0  0  0  0  0  0  0  0  0  0  0
   -3.4124   -7.9733   -1.5789 C   0  0  0  0  0  0  0  0  0  0  0  0
   -2.1788   -7.6207   -1.0641 C   0  0  0  0  0  0  0  0  0  0  0  0
   -2.0423   -6.2450    0.0284 S   0  0  1  0  0  0  0  0  0  0  0  0
   -0.7022   -5.7835   -0.0730 O   0  0  0  0  0  0  0  0  0  0  0  0
   -3.1702   -5.4184   -0.2244 O   0  0  0  0  0  0  0  0  0  0  0  0
   -2.2225   -6.8233    1.5697 N   0  0  0  0  0  0  0  0  0  0  0  0
   -3.5633   -7.0221    2.1254 C   0  0  1  0  0  0  0  0  0  0  0  0
   -3.9832   -8.4553    1.9237 C   0  0  0  0  0  0  0  0  0  0  0  0
   -3.2360   -9.2340    1.3702 O   0  0  0  0  0  0  0  0  0  0  0  0
   -5.1891   -8.8718    2.3583 N   0  0  0  0  0  0  0  0  0  0  0  0
   -5.5973  -10.2650    2.1622 C   0  0  1  0  0  0  0  0  0  0  0  0
   -6.2747  -10.9746    3.3363 C   0  0  1  0  0  0  0  0  0  0  0  0
   -7.0975  -10.5616    2.1142 C   0  0  1  0  0  0  0  0  0  0  0  0
   -1.0410   -7.1360    2.3774 C   0  0  1  0  0  0  0  0  0  0  0  0
   -0.7100   -5.9599    3.2597 C   0  0  0  0  0  0  0  0  0  0  0  0
    0.2267   -5.0299    2.8491 C   0  0  0  0  0  0  0  0  0  0  0  0
    0.5303   -3.9510    3.6583 C   0  0  0  0  0  0  0  0  0  0  0  0
   -0.1031   -3.8020    4.8779 C   0  0  0  0  0  0  0  0  0  0  0  0
   -1.0405   -4.7315    5.2881 C   0  0  0  0  0  0  0  0  0  0  0  0
   -1.3472   -5.8080    4.4769 C   0  0  0  0  0  0  0  0  0  0  0  0
   -1.0518   -8.3460   -1.4047 C   0  0  0  0  0  0  0  0  0  0  0  0
   -1.1568   -9.4278   -2.2571 C   0  0  0  0  0  0  0  0  0  0  0  0
    0.0717  -10.2181   -2.6275 C   0  0  1  0  0  0  0  0  0  0  0  0
   -4.7163  -12.5950   -5.4279 H   0  0  0  0  0  0  0  0  0  0  0  0
   -3.0559  -12.1412   -5.8809 H   0  0  0  0  0  0  0  0  0  0  0  0
   -3.3367  -13.2171   -4.4910 H   0  0  0  0  0  0  0  0  0  0  0  0
   -4.1871  -10.2916   -4.6777 H   0  0  0  0  0  0  0  0  0  0  0  0
   -4.4679  -11.3675   -3.2877 H   0  0  0  0  0  0  0  0  0  0  0  0
   -4.4858   -9.3261   -2.8386 H   0  0  0  0  0  0  0  0  0  0  0  0
   -4.2911   -7.4055   -1.3111 H   0  0  0  0  0  0  0  0  0  0  0  0
   -3.5526   -6.7932    3.1910 H   0  0  0  0  0  0  0  0  0  0  0  0
   -4.2680   -6.3624    1.6191 H   0  0  0  0  0  0  0  0  0  0  0  0
   -5.7867   -8.2490    2.8009 H   0  0  0  0  0  0  0  0  0  0  0  0
   -4.9459  -10.8601    1.5222 H   0  0  0  0  0  0  0  0  0  0  0  0
   -6.0690  -12.0368    3.4689 H   0  0  0  0  0  0  0  0  0  0  0  0
   -6.4168  -10.4048    4.2546 H   0  0  0  0  0  0  0  0  0  0  0  0
   -7.7808   -9.7201    2.2285 H   0  0  0  0  0  0  0  0  0  0  0  0
   -7.4330  -11.3520    1.4429 H   0  0  0  0  0  0  0  0  0  0  0  0
   -1.2453   -8.0090    2.9973 H   0  0  0  0  0  0  0  0  0  0  0  0
   -0.1970   -7.3463    1.7205 H   0  0  0  0  0  0  0  0  0  0  0  0
    0.7216   -5.1463    1.8962 H   0  0  0  0  0  0  0  0  0  0  0  0
    1.2627   -3.2248    3.3378 H   0  0  0  0  0  0  0  0  0  0  0  0
    0.1346   -2.9595    5.5105 H   0  0  0  0  0  0  0  0  0  0  0  0
   -1.5351   -4.6152    6.2411 H   0  0  0  0  0  0  0  0  0  0  0  0
   -2.0796   -6.5342    4.7974 H   0  0  0  0  0  0  0  0  0  0  0  0
   -0.0892   -8.0688   -1.0010 H   0  0  0  0  0  0  0  0  0  0  0  0
    0.2122  -11.0280   -1.9117 H   0  0  0  0  0  0  0  0  0  0  0  0
   -0.0518  -10.6343   -3.6274 H   0  0  0  0  0  0  0  0  0  0  0  0
    0.9432   -9.5637   -2.6115 H   0  0  0  0  0  0  0  0  0  0  0  0
  1  2  1  0
  1 29  1  6
  1 30  1  0
  1 31  1  0
  2  3  1  0
  2 32  1  6
  2 33  1  0
  3  4  1  0
  4 27  2  0
  4  5  1  0
  5  6  2  0
  5 34  1  0
  6  7  1  0
  6 35  1  0
  7  8  1  0
  7 26  2  0
  8  9  2  0
  8 10  2  0
  8 11  1  1
 11 12  1  0
 11 19  1  0
 12 13  1  0
 12 36  1  1
 12 37  1  0
 13 14  2  0
 13 15  1  0
 15 16  1  0
 15 38  1  0
 16 18  1  0
 16 17  1  0
 16 39  1  6
 17 18  1  0
 17 40  1  1
 17 41  1  0
 18 42  1  1
 18 43  1  0
 19 20  1  0
 19 44  1  1
 19 45  1  0
 20 25  2  0
 20 21  1  0
 21 22  2  0
 21 46  1  0
 22 23  1  0
 22 47  1  0
 23 24  2  0
 23 48  1  0
 24 25  1  0
 24 49  1  0
 25 50  1  0
 26 27  1  0
 26 51  1  0
 27 28  1  0
 28 52  1  1
 28 53  1  0
 28 54  1  0
M  END
$$$$
