ZINC000010912058
     RDKit          3D

 49 50  0  0  0  0  0  0  0  0999 V2000
    0.0687    1.5131   -0.3701 C   0  0  1  0  0  0  0  0  0  0  0  0
    0.1368   -0.0138   -0.3018 C   0  0  1  0  0  0  0  0  0  0  0  0
    0.8117   -0.4177    0.9341 N   0  0  0  0  0  0  0  0  0  0  0  0
    0.0498   -0.5361    2.1798 C   0  0  1  0  0  0  0  0  0  0  0  0
   -0.5960   -1.9212    2.2529 C   0  0  1  0  0  0  0  0  0  0  0  0
    2.4359   -0.7405    0.9232 S   0  0  1  0  0  0  0  0  0  0  0  0
    2.6569   -1.7214    1.9273 O   0  0  0  0  0  0  0  0  0  0  0  0
    2.7989   -0.9263   -0.4380 O   0  0  0  0  0  0  0  0  0  0  0  0
    3.2118    0.6315    1.4310 N   0  0  0  0  0  0  0  0  0  0  0  0
    3.5838    1.6795    0.4702 C   0  0  1  0  0  0  0  0  0  0  0  0
    2.9801    3.0096    0.9377 C   0  0  1  0  0  0  0  0  0  0  0  0
    3.3086    3.2013    2.3573 N   0  0  0  0  0  0  0  0  0  0  0  0
    4.0835    4.5738    2.8652 S   0  0  1  0  0  0  0  0  0  0  0  0
    4.7310    4.2407    4.0854 O   0  0  0  0  0  0  0  0  0  0  0  0
    4.7736    5.0869    1.7340 O   0  0  0  0  0  0  0  0  0  0  0  0
    2.8404    5.7558    3.2681 C   0  0  0  0  0  0  0  0  0  0  0  0
    2.3692    6.6210    2.2984 C   0  0  0  0  0  0  0  0  0  0  0  0
    1.3939    7.5483    2.6145 C   0  0  0  0  0  0  0  0  0  0  0  0
    0.8897    7.6102    3.9001 C   0  0  0  0  0  0  0  0  0  0  0  0
   -0.1731    8.6214    4.2448 C   0  0  1  0  0  0  0  0  0  0  0  0
   -1.4369    8.0625    4.0267 F   0  0  0  0  0  0  0  0  0  0  0  0
   -0.0506    8.9867    5.5897 F   0  0  0  0  0  0  0  0  0  0  0  0
   -0.0185    9.7539    3.4380 F   0  0  0  0  0  0  0  0  0  0  0  0
    1.3600    6.7440    4.8694 C   0  0  0  0  0  0  0  0  0  0  0  0
    2.3324    5.8142    4.5524 C   0  0  0  0  0  0  0  0  0  0  0  0
    2.9366    2.1532    3.3181 C   0  0  1  0  0  0  0  0  0  0  0  0
    3.5353    0.8256    2.8514 C   0  0  1  0  0  0  0  0  0  0  0  0
    1.0767    1.9181   -0.4600 H   0  0  0  0  0  0  0  0  0  0  0  0
   -0.5215    1.8121   -1.2363 H   0  0  0  0  0  0  0  0  0  0  0  0
   -0.3975    1.8970    0.5373 H   0  0  0  0  0  0  0  0  0  0  0  0
   -0.8732   -0.4235   -0.3149 H   0  0  0  0  0  0  0  0  0  0  0  0
    0.6932   -0.3914   -1.1597 H   0  0  0  0  0  0  0  0  0  0  0  0
    0.7193   -0.4020    3.0294 H   0  0  0  0  0  0  0  0  0  0  0  0
   -0.7266    0.2286    2.2048 H   0  0  0  0  0  0  0  0  0  0  0  0
   -1.2656   -2.0552    1.4033 H   0  0  0  0  0  0  0  0  0  0  0  0
    0.1804   -2.6858    2.2279 H   0  0  0  0  0  0  0  0  0  0  0  0
   -1.1630   -2.0092    3.1797 H   0  0  0  0  0  0  0  0  0  0  0  0
    4.6694    1.7662    0.4255 H   0  0  0  0  0  0  0  0  0  0  0  0
    3.1936    1.4271   -0.5158 H   0  0  0  0  0  0  0  0  0  0  0  0
    3.3990    3.8276    0.3516 H   0  0  0  0  0  0  0  0  0  0  0  0
    1.8975    2.9839    0.8129 H   0  0  0  0  0  0  0  0  0  0  0  0
    2.7631    6.5727    1.2940 H   0  0  0  0  0  0  0  0  0  0  0  0
    1.0263    8.2248    1.8571 H   0  0  0  0  0  0  0  0  0  0  0  0
    0.9657    6.7921    5.8737 H   0  0  0  0  0  0  0  0  0  0  0  0
    2.6999    5.1375    5.3097 H   0  0  0  0  0  0  0  0  0  0  0  0
    3.3268    2.4056    4.3040 H   0  0  0  0  0  0  0  0  0  0  0  0
    1.8509    2.0666    3.3628 H   0  0  0  0  0  0  0  0  0  0  0  0
    3.1156    0.0086    3.4382 H   0  0  0  0  0  0  0  0  0  0  0  0
    4.6181    0.8492    2.9746 H   0  0  0  0  0  0  0  0  0  0  0  0
  1  2  1  0
  1 28  1  6
  1 29  1  0
  1 30  1  0
  2  3  1  0
  2 31  1  1
  2 32  1  0
  3  4  1  0
  6  3  1  6
  4  5  1  0
  4 33  1  1
  4 34  1  0
  5 35  1  6
  5 36  1  0
  5 37  1  0
  6  7  2  0
  6  8  2  0
  6  9  1  0
  9 27  1  0
  9 10  1  0
 10 11  1  0
 10 38  1  6
 10 39  1  0
 11 12  1  0
 11 40  1  6
 11 41  1  0
 13 12  1  6
 12 26  1  0
 13 14  2  0
 13 15  2  0
 13 16  1  0
 16 25  2  0
 16 17  1  0
 17 18  2  0
 17 42  1  0
 18 19  1  0
 18 43  1  0
 19 20  1  0
 19 24  2  0
 20 21  1  1
 20 22  1  0
 20 23  1  0
 24 25  1  0
 24 44  1  0
 25 45  1  0
 26 27  1  0
 26 46  1  1
 26 47  1  0
 27 48  1  1
 27 49  1  0
M  END
$$$$
