ZINC000039986573
     RDKit          3D

 59 60  0  0  1  0  0  0  0  0999 V2000
   -0.0187    1.5258    0.0104 C   0  0  1  0  0  0  0  0  0  0  0  0
    0.0021   -0.0041    0.0020 C   0  0  1  0  0  0  0  0  0  0  0  0
    0.6709   -0.4649   -1.1737 O   0  0  0  0  0  0  0  0  0  0  0  0
    0.7768   -1.8103   -1.3362 C   0  0  0  0  0  0  0  0  0  0  0  0
    0.2430   -2.6686   -0.3869 C   0  0  0  0  0  0  0  0  0  0  0  0
    0.3514   -4.0361   -0.5545 C   0  0  0  0  0  0  0  0  0  0  0  0
    0.9917   -4.5491   -1.6670 C   0  0  0  0  0  0  0  0  0  0  0  0
    1.1278   -6.2933   -1.8770 S   0  0  1  0  0  0  0  0  0  0  0  0
    2.2440   -6.5089   -2.7296 O   0  0  0  0  0  0  0  0  0  0  0  0
    1.0191   -6.8633   -0.5799 O   0  0  0  0  0  0  0  0  0  0  0  0
   -0.2077   -6.7912   -2.7201 N   0  0  0  0  0  0  0  0  0  0  0  0
   -0.1767   -6.8316   -4.1842 C   0  0  1  0  0  0  0  0  0  0  0  0
    0.1909   -8.2425   -4.6478 C   0  0  1  0  0  0  0  0  0  0  0  0
   -1.4202   -7.1914   -2.0018 C   0  0  1  0  0  0  0  0  0  0  0  0
   -2.3603   -6.0172   -1.9100 C   0  0  0  0  0  0  0  0  0  0  0  0
   -2.0483   -4.9511   -2.3967 O   0  0  0  0  0  0  0  0  0  0  0  0
   -3.5479   -6.1519   -1.2871 N   0  0  0  0  0  0  0  0  0  0  0  0
   -4.4618   -5.0104   -1.1979 C   0  0  2  0  0  0  0  0  0  0  0  0
   -4.3844   -4.4112   -2.1051 H   0  0  0  0  0  0  0  0  0  0  0  0
   -4.0897   -4.1525    0.0131 C   0  0  1  0  0  0  0  0  0  0  0  0
   -5.8971   -5.5171   -1.0423 C   0  0  1  0  0  0  0  0  0  0  0  0
   -6.3121   -6.2700   -2.3079 C   0  0  1  0  0  0  0  0  0  0  0  0
   -7.7258   -6.7692   -2.1546 C   0  0  0  0  0  0  0  0  0  0  0  0
   -7.9630   -8.0161   -1.6070 C   0  0  0  0  0  0  0  0  0  0  0  0
   -9.2597   -8.4739   -1.4664 C   0  0  0  0  0  0  0  0  0  0  0  0
  -10.3193   -7.6847   -1.8729 C   0  0  0  0  0  0  0  0  0  0  0  0
  -10.0821   -6.4374   -2.4197 C   0  0  0  0  0  0  0  0  0  0  0  0
   -8.7856   -5.9778   -2.5563 C   0  0  0  0  0  0  0  0  0  0  0  0
    1.5252   -3.6960   -2.6156 C   0  0  0  0  0  0  0  0  0  0  0  0
    1.4146   -2.3276   -2.4559 C   0  0  0  0  0  0  0  0  0  0  0  0
    2.0844   -1.2567   -3.6468 Cl  0  0  0  0  0  0  0  0  0  0  0  0
    1.0039    1.9031    0.0027 H   0  0  0  0  0  0  0  0  0  0  0  0
   -0.5459    1.8868   -0.8726 H   0  0  0  0  0  0  0  0  0  0  0  0
   -0.5289    1.8773    0.9072 H   0  0  0  0  0  0  0  0  0  0  0  0
    0.5293   -0.3651    0.8851 H   0  0  0  0  0  0  0  0  0  0  0  0
   -1.0205   -0.3814    0.0098 H   0  0  0  0  0  0  0  0  0  0  0  0
   -0.2569   -2.2688    0.4829 H   0  0  0  0  0  0  0  0  0  0  0  0
   -0.0644   -4.7047    0.1848 H   0  0  0  0  0  0  0  0  0  0  0  0
   -1.1582   -6.5646   -4.5759 H   0  0  0  0  0  0  0  0  0  0  0  0
    0.5660   -6.1234   -4.5515 H   0  0  0  0  0  0  0  0  0  0  0  0
    1.1724   -8.5095   -4.2561 H   0  0  0  0  0  0  0  0  0  0  0  0
   -0.5519   -8.9507   -4.2805 H   0  0  0  0  0  0  0  0  0  0  0  0
    0.2139   -8.2725   -5.7372 H   0  0  0  0  0  0  0  0  0  0  0  0
   -1.9076   -8.0061   -2.5373 H   0  0  0  0  0  0  0  0  0  0  0  0
   -1.1549   -7.5238   -0.9981 H   0  0  0  0  0  0  0  0  0  0  0  0
   -3.7975   -7.0046   -0.8978 H   0  0  0  0  0  0  0  0  0  0  0  0
   -4.1671   -4.7517    0.9204 H   0  0  0  0  0  0  0  0  0  0  0  0
   -3.0673   -3.7915   -0.0977 H   0  0  0  0  0  0  0  0  0  0  0  0
   -4.7697   -3.3033    0.0795 H   0  0  0  0  0  0  0  0  0  0  0  0
   -5.9546   -6.1880   -0.1851 H   0  0  0  0  0  0  0  0  0  0  0  0
   -6.5663   -4.6709   -0.8869 H   0  0  0  0  0  0  0  0  0  0  0  0
   -6.2546   -5.5992   -3.1650 H   0  0  0  0  0  0  0  0  0  0  0  0
   -5.6429   -7.1162   -2.4632 H   0  0  0  0  0  0  0  0  0  0  0  0
   -7.1352   -8.6327   -1.2894 H   0  0  0  0  0  0  0  0  0  0  0  0
   -9.4450   -9.4484   -1.0393 H   0  0  0  0  0  0  0  0  0  0  0  0
  -11.3323   -8.0427   -1.7637 H   0  0  0  0  0  0  0  0  0  0  0  0
  -10.9099   -5.8209   -2.7376 H   0  0  0  0  0  0  0  0  0  0  0  0
   -8.6003   -5.0033   -2.9835 H   0  0  0  0  0  0  0  0  0  0  0  0
    2.0250   -4.0993   -3.4839 H   0  0  0  0  0  0  0  0  0  0  0  0
  1  2  1  0
  1 32  1  6
  1 33  1  0
  1 34  1  0
  2  3  1  0
  2 35  1  1
  2 36  1  0
  3  4  1  0
  4 30  2  0
  4  5  1  0
  5  6  2  0
  5 37  1  0
  6  7  1  0
  6 38  1  0
  7  8  1  0
  7 29  2  0
  8  9  2  0
  8 10  2  0
  8 11  1  6
 11 12  1  0
 11 14  1  0
 12 13  1  0
 12 39  1  6
 12 40  1  0
 13 41  1  1
 13 42  1  0
 13 43  1  0
 14 15  1  0
 14 44  1  6
 14 45  1  0
 15 16  2  0
 15 17  1  0
 17 18  1  0
 17 46  1  0
 18 19  1  6
 18 20  1  0
 18 21  1  0
 20 47  1  1
 20 48  1  0
 20 49  1  0
 21 22  1  0
 21 50  1  1
 21 51  1  0
 22 23  1  0
 22 52  1  6
 22 53  1  0
 23 28  2  0
 23 24  1  0
 24 25  2  0
 24 54  1  0
 25 26  1  0
 25 55  1  0
 26 27  2  0
 26 56  1  0
 27 28  1  0
 27 57  1  0
 28 58  1  0
 29 30  1  0
 29 59  1  0
 30 31  1  0
M  END
$$$$
