ZINC000022652408
     RDKit          3D

 51 53  0  0  0  0  0  0  0  0999 V2000
   -0.0184    1.5028    0.0103 C   0  0  1  0  0  0  0  0  0  0  0  0
    0.0021   -0.0041    0.0020 C   0  0  0  0  0  0  0  0  0  0  0  0
    0.0203   -0.6159    1.0487 O   0  0  0  0  0  0  0  0  0  0  0  0
   -0.0001   -0.7330   -1.2765 C   0  0  0  0  0  0  0  0  0  0  0  0
   -0.0153   -0.0308   -2.4858 C   0  0  0  0  0  0  0  0  0  0  0  0
   -0.0173   -0.7210   -3.6795 C   0  0  0  0  0  0  0  0  0  0  0  0
   -0.0048   -2.1050   -3.6829 C   0  0  0  0  0  0  0  0  0  0  0  0
   -0.0075   -2.9777   -5.2136 S   0  0  1  0  0  0  0  0  0  0  0  0
   -0.5383   -4.2670   -4.9395 O   0  0  0  0  0  0  0  0  0  0  0  0
   -0.5666   -2.0958   -6.1773 O   0  0  0  0  0  0  0  0  0  0  0  0
    1.5735   -3.2061   -5.6504 N   0  0  0  0  0  0  0  0  0  0  0  0
    2.2756   -2.2082   -6.4689 C   0  0  1  0  0  0  0  0  0  0  0  0
    3.5698   -1.8068   -5.7544 C   0  0  1  0  0  0  0  0  0  0  0  0
    4.3913   -3.0621   -5.4518 C   0  0  1  0  0  0  0  0  0  0  0  0
    5.7007   -2.6621   -4.7690 C   0  0  1  0  0  0  0  0  0  0  0  0
    6.5633   -3.8836   -4.5819 C   0  0  0  0  0  0  0  0  0  0  0  0
    6.4543   -4.6365   -3.4277 C   0  0  0  0  0  0  0  0  0  0  0  0
    7.2454   -5.7570   -3.2561 C   0  0  0  0  0  0  0  0  0  0  0  0
    8.1453   -6.1248   -4.2389 C   0  0  0  0  0  0  0  0  0  0  0  0
    9.0082   -7.3461   -4.0515 C   0  0  1  0  0  0  0  0  0  0  0  0
    8.3473   -8.4672   -4.5650 F   0  0  0  0  0  0  0  0  0  0  0  0
   10.2201   -7.1689   -4.7276 F   0  0  0  0  0  0  0  0  0  0  0  0
    9.2581   -7.5358   -2.6882 F   0  0  0  0  0  0  0  0  0  0  0  0
    8.2533   -5.3727   -5.3937 C   0  0  0  0  0  0  0  0  0  0  0  0
    7.4594   -4.2544   -5.5669 C   0  0  0  0  0  0  0  0  0  0  0  0
    3.5946   -3.9844   -4.5262 C   0  0  1  0  0  0  0  0  0  0  0  0
    2.3025   -4.4076   -5.2217 C   0  0  1  0  0  0  0  0  0  0  0  0
    0.0103   -2.8071   -2.4902 C   0  0  0  0  0  0  0  0  0  0  0  0
    0.0188   -2.1313   -1.2883 C   0  0  0  0  0  0  0  0  0  0  0  0
    1.0042    1.8801    0.0026 H   0  0  0  0  0  0  0  0  0  0  0  0
   -0.5455    1.8639   -0.8728 H   0  0  0  0  0  0  0  0  0  0  0  0
   -0.5286    1.8543    0.9071 H   0  0  0  0  0  0  0  0  0  0  0  0
   -0.0259    1.0491   -2.4848 H   0  0  0  0  0  0  0  0  0  0  0  0
   -0.0291   -0.1802   -4.6143 H   0  0  0  0  0  0  0  0  0  0  0  0
    2.5135   -2.6363   -7.4427 H   0  0  0  0  0  0  0  0  0  0  0  0
    1.6423   -1.3306   -6.5982 H   0  0  0  0  0  0  0  0  0  0  0  0
    4.1471   -1.1398   -6.3947 H   0  0  0  0  0  0  0  0  0  0  0  0
    3.3275   -1.2971   -4.8218 H   0  0  0  0  0  0  0  0  0  0  0  0
    4.6120   -3.5847   -6.3826 H   0  0  0  0  0  0  0  0  0  0  0  0
    6.2274   -1.9370   -5.3895 H   0  0  0  0  0  0  0  0  0  0  0  0
    5.4831   -2.2187   -3.7973 H   0  0  0  0  0  0  0  0  0  0  0  0
    5.7512   -4.3491   -2.6599 H   0  0  0  0  0  0  0  0  0  0  0  0
    7.1608   -6.3448   -2.3540 H   0  0  0  0  0  0  0  0  0  0  0  0
    8.9561   -5.6603   -6.1616 H   0  0  0  0  0  0  0  0  0  0  0  0
    7.5438   -3.6668   -6.4692 H   0  0  0  0  0  0  0  0  0  0  0  0
    4.1895   -4.8673   -4.2924 H   0  0  0  0  0  0  0  0  0  0  0  0
    3.3520   -3.4542   -3.6052 H   0  0  0  0  0  0  0  0  0  0  0  0
    1.6868   -4.9829   -4.5303 H   0  0  0  0  0  0  0  0  0  0  0  0
    2.5397   -5.0150   -6.0952 H   0  0  0  0  0  0  0  0  0  0  0  0
    0.0201   -3.8870   -2.5011 H   0  0  0  0  0  0  0  0  0  0  0  0
    0.0306   -2.6806   -0.3585 H   0  0  0  0  0  0  0  0  0  0  0  0
  1  2  1  0
  1 30  1  6
  1 31  1  0
  1 32  1  0
  2  3  2  0
  2  4  1  0
  4 29  2  0
  4  5  1  0
  5  6  2  0
  5 33  1  0
  6  7  1  0
  6 34  1  0
  7  8  1  0
  7 28  2  0
  8  9  2  0
  8 10  2  0
  8 11  1  6
 11 27  1  0
 11 12  1  0
 12 13  1  0
 12 35  1  6
 12 36  1  0
 13 14  1  0
 13 37  1  6
 13 38  1  0
 14 15  1  0
 14 26  1  0
 14 39  1  6
 15 16  1  0
 15 40  1  6
 15 41  1  0
 16 25  2  0
 16 17  1  0
 17 18  2  0
 17 42  1  0
 18 19  1  0
 18 43  1  0
 19 20  1  0
 19 24  2  0
 20 21  1  6
 20 22  1  0
 20 23  1  0
 24 25  1  0
 24 44  1  0
 25 45  1  0
 26 27  1  0
 26 46  1  1
 26 47  1  0
 27 48  1  1
 27 49  1  0
 28 29  1  0
 28 50  1  0
 29 51  1  0
M  END
$$$$
