ZINC000409142268
     RDKit          3D

 47 48  0  0  1  0  0  0  0  0999 V2000
    0.1005    1.9852   -1.0725 C   0  0  1  0  0  0  0  0  0  0  0  0
   -0.4623    0.7655   -1.5599 O   0  0  0  0  0  0  0  0  0  0  0  0
    0.3386   -0.0204   -2.3284 C   0  0  0  0  0  0  0  0  0  0  0  0
    1.6403    0.3734   -2.6011 C   0  0  0  0  0  0  0  0  0  0  0  0
    2.4545   -0.4243   -3.3810 C   0  0  0  0  0  0  0  0  0  0  0  0
    1.9696   -1.6209   -3.8921 C   0  0  0  0  0  0  0  0  0  0  0  0
    2.7940   -2.4301   -4.6820 N   0  0  0  0  0  0  0  0  0  0  0  0
    3.1912   -3.7573   -4.2056 C   0  0  2  0  0  0  0  0  0  0  0  0
    3.7913   -4.2527   -4.9689 H   0  0  0  0  0  0  0  0  0  0  0  0
    1.9410   -4.5914   -3.9188 C   0  0  1  0  0  0  0  0  0  0  0  0
    4.0014   -3.6161   -2.9428 C   0  0  0  0  0  0  0  0  0  0  0  0
    4.2251   -2.5151   -2.4857 O   0  0  0  0  0  0  0  0  0  0  0  0
    4.4775   -4.7132   -2.3214 N   0  0  0  0  0  0  0  0  0  0  0  0
    5.3229   -4.5788   -1.2138 C   0  0  0  0  0  0  0  0  0  0  0  0
    6.0038   -3.3885   -0.9988 C   0  0  0  0  0  0  0  0  0  0  0  0
    6.8371   -3.2587    0.0955 C   0  0  0  0  0  0  0  0  0  0  0  0
    7.5761   -1.9663    0.3294 C   0  0  1  0  0  0  0  0  0  0  0  0
    6.7929   -1.1176    1.1191 F   0  0  0  0  0  0  0  0  0  0  0  0
    8.7831   -2.2314    0.9853 F   0  0  0  0  0  0  0  0  0  0  0  0
    7.8384   -1.3502   -0.8989 F   0  0  0  0  0  0  0  0  0  0  0  0
    6.9936   -4.3125    0.9765 C   0  0  0  0  0  0  0  0  0  0  0  0
    6.3173   -5.5004    0.7657 C   0  0  0  0  0  0  0  0  0  0  0  0
    5.4778   -5.6350   -0.3236 C   0  0  0  0  0  0  0  0  0  0  0  0
    4.6287   -7.1260   -0.5876 Cl  0  0  0  0  0  0  0  0  0  0  0  0
    3.3207   -1.8872   -6.1552 S   0  0  1  0  0  0  0  0  0  0  0  0
    4.8832   -1.0399   -5.7932 C   0  0  1  0  0  0  0  0  0  0  0  0
    3.5577   -3.0731   -6.9013 O   0  0  0  0  0  0  0  0  0  0  0  0
    2.3290   -0.9533   -6.5595 O   0  0  0  0  0  0  0  0  0  0  0  0
    0.6663   -2.0145   -3.6185 C   0  0  0  0  0  0  0  0  0  0  0  0
   -0.1448   -1.2181   -2.8341 C   0  0  0  0  0  0  0  0  0  0  0  0
    0.9712    1.7625   -0.4556 H   0  0  0  0  0  0  0  0  0  0  0  0
    0.4016    2.6084   -1.9145 H   0  0  0  0  0  0  0  0  0  0  0  0
   -0.6419    2.5149   -0.4755 H   0  0  0  0  0  0  0  0  0  0  0  0
    2.0171    1.3043   -2.2039 H   0  0  0  0  0  0  0  0  0  0  0  0
    3.4678   -0.1173   -3.5936 H   0  0  0  0  0  0  0  0  0  0  0  0
    2.2342   -5.6104   -3.6662 H   0  0  0  0  0  0  0  0  0  0  0  0
    1.3952   -4.1527   -3.0835 H   0  0  0  0  0  0  0  0  0  0  0  0
    1.3030   -4.6054   -4.8025 H   0  0  0  0  0  0  0  0  0  0  0  0
    4.2343   -5.5959   -2.6417 H   0  0  0  0  0  0  0  0  0  0  0  0
    5.8826   -2.5647   -1.6866 H   0  0  0  0  0  0  0  0  0  0  0  0
    7.6456   -4.2081    1.8311 H   0  0  0  0  0  0  0  0  0  0  0  0
    6.4419   -6.3220    1.4556 H   0  0  0  0  0  0  0  0  0  0  0  0
    5.6304   -1.7714   -5.4852 H   0  0  0  0  0  0  0  0  0  0  0  0
    5.2301   -0.5202   -6.6863 H   0  0  0  0  0  0  0  0  0  0  0  0
    4.7282   -0.3190   -4.9904 H   0  0  0  0  0  0  0  0  0  0  0  0
    0.2884   -2.9450   -4.0156 H   0  0  0  0  0  0  0  0  0  0  0  0
   -1.1584   -1.5242   -2.6209 H   0  0  0  0  0  0  0  0  0  0  0  0
  1  2  1  0
  1 31  1  1
  1 32  1  0
  1 33  1  0
  2  3  1  0
  3 30  2  0
  3  4  1  0
  4  5  2  0
  4 34  1  0
  5  6  1  0
  5 35  1  0
  6  7  1  0
  6 29  2  0
  7  8  1  0
 25  7  1  1
  8  9  1  6
  8 10  1  0
  8 11  1  0
 10 36  1  1
 10 37  1  0
 10 38  1  0
 11 12  2  0
 11 13  1  0
 13 14  1  0
 13 39  1  0
 14 23  2  0
 14 15  1  0
 15 16  2  0
 15 40  1  0
 16 17  1  0
 16 21  1  0
 17 18  1  1
 17 19  1  0
 17 20  1  0
 21 22  2  0
 21 41  1  0
 22 23  1  0
 22 42  1  0
 23 24  1  0
 25 26  1  0
 25 27  2  0
 25 28  2  0
 26 43  1  1
 26 44  1  0
 26 45  1  0
 29 30  1  0
 29 46  1  0
 30 47  1  0
M  END
$$$$
