ZINC000032999965
     RDKit          3D

 53 55  0  0  1  0  0  0  0  0999 V2000
   -0.0187    1.5258    0.0104 C   0  0  1  0  0  0  0  0  0  0  0  0
    0.0021   -0.0041    0.0020 C   0  0  1  0  0  0  0  0  0  0  0  0
    0.5123   -0.3556   -0.8948 H   0  0  0  0  0  0  0  0  0  0  0  0
    0.7421   -0.5109    1.2415 C   0  0  1  0  0  0  0  0  0  0  0  0
    0.8719   -2.0337    1.1708 C   0  0  1  0  0  0  0  0  0  0  0  0
    1.6008   -2.5330    2.3917 C   0  0  0  0  0  0  0  0  0  0  0  0
    2.9789   -2.6409    2.3781 C   0  0  0  0  0  0  0  0  0  0  0  0
    3.6475   -3.0988    3.4980 C   0  0  0  0  0  0  0  0  0  0  0  0
    2.9380   -3.4484    4.6317 C   0  0  0  0  0  0  0  0  0  0  0  0
    1.5600   -3.3396    4.6457 C   0  0  0  0  0  0  0  0  0  0  0  0
    0.8918   -2.8776    3.5272 C   0  0  0  0  0  0  0  0  0  0  0  0
   -1.3723   -0.5112    0.0124 N   0  0  0  0  0  0  0  0  0  0  0  0
   -2.0508   -0.6427   -1.1446 C   0  0  0  0  0  0  0  0  0  0  0  0
   -1.5236   -0.3413   -2.1944 O   0  0  0  0  0  0  0  0  0  0  0  0
   -3.4646   -1.1643   -1.1339 C   0  0  1  0  0  0  0  0  0  0  0  0
   -3.9923   -1.2144   -2.5447 C   0  0  0  0  0  0  0  0  0  0  0  0
   -3.8913   -2.2600   -3.3667 C   0  0  0  0  0  0  0  0  0  0  0  0
   -4.4525   -2.0743   -4.6184 C   0  0  0  0  0  0  0  0  0  0  0  0
   -5.0092   -0.8778   -4.8128 C   0  0  0  0  0  0  0  0  0  0  0  0
   -5.7985   -0.3540   -6.2985 S   0  0  1  0  0  0  0  0  0  0  0  0
   -5.7465    1.0661   -6.3013 O   0  0  0  0  0  0  0  0  0  0  0  0
   -5.2597   -1.1535   -7.3424 O   0  0  0  0  0  0  0  0  0  0  0  0
   -7.3983   -0.7632   -6.1743 N   0  0  0  0  0  0  0  0  0  0  0  0
   -7.9923   -2.0383   -6.6018 C   0  0  1  0  0  0  0  0  0  0  0  0
   -9.5066   -1.9571   -6.3157 C   0  0  1  0  0  0  0  0  0  0  0  0
   -9.7694   -0.4288   -6.2659 C   0  0  1  0  0  0  0  0  0  0  0  0
   -8.4617    0.0883   -5.6108 C   0  0  1  0  0  0  0  0  0  0  0  0
   -4.8421    0.0941   -3.3564 S   0  0  0  0  0  0  0  0  0  0  0  0
    1.0039    1.9031    0.0027 H   0  0  0  0  0  0  0  0  0  0  0  0
   -0.5459    1.8868   -0.8726 H   0  0  0  0  0  0  0  0  0  0  0  0
   -0.5289    1.8773    0.9072 H   0  0  0  0  0  0  0  0  0  0  0  0
    1.7350   -0.0630    1.2804 H   0  0  0  0  0  0  0  0  0  0  0  0
    0.1838   -0.2350    2.1361 H   0  0  0  0  0  0  0  0  0  0  0  0
   -0.1210   -2.4817    1.1320 H   0  0  0  0  0  0  0  0  0  0  0  0
    1.4302   -2.3096    0.2763 H   0  0  0  0  0  0  0  0  0  0  0  0
    3.5331   -2.3677    1.4923 H   0  0  0  0  0  0  0  0  0  0  0  0
    4.7241   -3.1838    3.4870 H   0  0  0  0  0  0  0  0  0  0  0  0
    3.4603   -3.8068    5.5064 H   0  0  0  0  0  0  0  0  0  0  0  0
    1.0057   -3.6130    5.5313 H   0  0  0  0  0  0  0  0  0  0  0  0
   -0.1848   -2.7926    3.5382 H   0  0  0  0  0  0  0  0  0  0  0  0
   -1.7940   -0.7522    0.8520 H   0  0  0  0  0  0  0  0  0  0  0  0
   -3.4790   -2.1662   -0.7048 H   0  0  0  0  0  0  0  0  0  0  0  0
   -4.0912   -0.5035   -0.5349 H   0  0  0  0  0  0  0  0  0  0  0  0
   -3.4080   -3.1816   -3.0778 H   0  0  0  0  0  0  0  0  0  0  0  0
   -4.4402   -2.8399   -5.3800 H   0  0  0  0  0  0  0  0  0  0  0  0
   -7.8240   -2.1864   -7.6685 H   0  0  0  0  0  0  0  0  0  0  0  0
   -7.5519   -2.8601   -6.0373 H   0  0  0  0  0  0  0  0  0  0  0  0
  -10.0766   -2.4204   -7.1210 H   0  0  0  0  0  0  0  0  0  0  0  0
   -9.7435   -2.4206   -5.3579 H   0  0  0  0  0  0  0  0  0  0  0  0
   -9.8956   -0.0212   -7.2689 H   0  0  0  0  0  0  0  0  0  0  0  0
  -10.6335   -0.2011   -5.6417 H   0  0  0  0  0  0  0  0  0  0  0  0
   -8.5102   -0.0231   -4.5276 H   0  0  0  0  0  0  0  0  0  0  0  0
   -8.2899    1.1309   -5.8785 H   0  0  0  0  0  0  0  0  0  0  0  0
  1  2  1  0
  1 29  1  6
  1 30  1  0
  1 31  1  0
  2  3  1  6
  2  4  1  0
  2 12  1  0
  4  5  1  0
  4 32  1  1
  4 33  1  0
  5  6  1  0
  5 34  1  6
  5 35  1  0
  6 11  2  0
  6  7  1  0
  7  8  2  0
  7 36  1  0
  8  9  1  0
  8 37  1  0
  9 10  2  0
  9 38  1  0
 10 11  1  0
 10 39  1  0
 11 40  1  0
 12 13  1  0
 12 41  1  0
 13 14  2  0
 13 15  1  0
 15 16  1  0
 15 42  1  1
 15 43  1  0
 16 28  1  0
 16 17  2  0
 17 18  1  0
 17 44  1  0
 18 19  2  0
 18 45  1  0
 19 20  1  0
 19 28  1  0
 20 21  2  0
 20 22  2  0
 20 23  1  1
 23 27  1  0
 23 24  1  0
 24 25  1  0
 24 46  1  6
 24 47  1  0
 25 26  1  0
 25 48  1  6
 25 49  1  0
 26 27  1  0
 26 50  1  6
 26 51  1  0
 27 52  1  1
 27 53  1  0
M  END
$$$$
