ZINC000071415933
     RDKit          3D

 38 39  0  0  0  0  0  0  0  0999 V2000
    0.5218    1.4242    0.3536 C   0  0  1  0  0  0  0  0  0  0  0  0
    0.4459   -0.0415    0.2900 N   0  0  0  0  0  0  0  0  0  0  0  0
   -0.9337   -0.4874    0.0536 C   0  0  1  0  0  0  0  0  0  0  0  0
   -0.9437   -2.0009   -0.1861 C   0  0  1  0  0  0  0  0  0  0  0  0
   -0.2624   -2.6569    0.9402 N   0  0  0  0  0  0  0  0  0  0  0  0
   -0.9777   -3.9099    1.7530 S   0  0  1  0  0  0  0  0  0  0  0  0
   -0.3008   -4.0193    2.9976 O   0  0  0  0  0  0  0  0  0  0  0  0
   -2.3803   -3.7088    1.6461 O   0  0  0  0  0  0  0  0  0  0  0  0
   -0.6170   -5.3849    0.8592 C   0  0  0  0  0  0  0  0  0  0  0  0
    0.3613   -5.3796   -0.1171 C   0  0  0  0  0  0  0  0  0  0  0  0
    0.6443   -6.5370   -0.8185 C   0  0  0  0  0  0  0  0  0  0  0  0
    1.7106   -6.5310   -1.8833 C   0  0  1  0  0  0  0  0  0  0  0  0
    2.9446   -6.8555   -1.3095 F   0  0  0  0  0  0  0  0  0  0  0  0
    1.3920   -7.4727   -2.8676 F   0  0  0  0  0  0  0  0  0  0  0  0
    1.7852   -5.2592   -2.4615 F   0  0  0  0  0  0  0  0  0  0  0  0
   -0.0504   -7.6995   -0.5426 C   0  0  0  0  0  0  0  0  0  0  0  0
   -1.0287   -7.7050    0.4343 C   0  0  0  0  0  0  0  0  0  0  0  0
   -1.3087   -6.5491    1.1384 C   0  0  0  0  0  0  0  0  0  0  0  0
   -2.3750   -6.5550    2.2033 C   0  0  1  0  0  0  0  0  0  0  0  0
   -2.8379   -7.8616    2.3924 F   0  0  0  0  0  0  0  0  0  0  0  0
   -1.8395   -6.0719    3.4021 F   0  0  0  0  0  0  0  0  0  0  0  0
   -3.4374   -5.7370    1.8040 F   0  0  0  0  0  0  0  0  0  0  0  0
    1.0713   -2.1708    1.3252 C   0  0  1  0  0  0  0  0  0  0  0  0
    1.0020   -0.6507    1.5055 C   0  0  1  0  0  0  0  0  0  0  0  0
    1.5633    1.7301    0.4528 H   0  0  0  0  0  0  0  0  0  0  0  0
    0.1035    1.8496   -0.5586 H   0  0  0  0  0  0  0  0  0  0  0  0
   -0.0450    1.7804    1.2138 H   0  0  0  0  0  0  0  0  0  0  0  0
   -1.5459   -0.2530    0.9245 H   0  0  0  0  0  0  0  0  0  0  0  0
   -1.3357    0.0223   -0.8220 H   0  0  0  0  0  0  0  0  0  0  0  0
   -1.9728   -2.3550   -0.2480 H   0  0  0  0  0  0  0  0  0  0  0  0
   -0.4189   -2.2281   -1.1141 H   0  0  0  0  0  0  0  0  0  0  0  0
    0.9044   -4.4712   -0.3324 H   0  0  0  0  0  0  0  0  0  0  0  0
    0.1707   -8.6036   -1.0905 H   0  0  0  0  0  0  0  0  0  0  0  0
   -1.5718   -8.6134    0.6496 H   0  0  0  0  0  0  0  0  0  0  0  0
    1.3745   -2.6373    2.2626 H   0  0  0  0  0  0  0  0  0  0  0  0
    1.7898   -2.4144    0.5426 H   0  0  0  0  0  0  0  0  0  0  0  0
    2.0038   -0.2594    1.6828 H   0  0  0  0  0  0  0  0  0  0  0  0
    0.3629   -0.4140    2.3561 H   0  0  0  0  0  0  0  0  0  0  0  0
  1  2  1  0
  1 25  1  1
  1 26  1  0
  1 27  1  0
  2 24  1  0
  2  3  1  0
  3  4  1  0
  3 28  1  1
  3 29  1  0
  4  5  1  0
  4 30  1  6
  4 31  1  0
  6  5  1  6
  5 23  1  0
  6  7  2  0
  6  8  2  0
  6  9  1  0
  9 18  2  0
  9 10  1  0
 10 11  2  0
 10 32  1  0
 11 12  1  0
 11 16  1  0
 12 13  1  1
 12 14  1  0
 12 15  1  0
 16 17  2  0
 16 33  1  0
 17 18  1  0
 17 34  1  0
 18 19  1  0
 19 20  1  1
 19 21  1  0
 19 22  1  0
 23 24  1  0
 23 35  1  1
 23 36  1  0
 24 37  1  1
 24 38  1  0
M  END
$$$$
