ZINC000011612632
     RDKit          3D

 50 52  0  0  1  0  0  0  0  0999 V2000
    1.5246   -0.5019    1.6513 O   0  0  0  0  0  0  0  0  0  0  0  0
    1.1015    0.4665    1.0560 C   0  0  0  0  0  0  0  0  0  0  0  0
    1.0451    0.4600   -0.4499 C   0  0  1  0  0  0  0  0  0  0  0  0
    1.7330   -0.7995   -0.9805 C   0  0  2  0  0  0  0  0  0  0  0  0
    1.3549   -1.6733   -0.4500 H   0  0  0  0  0  0  0  0  0  0  0  0
    3.2461   -0.6857   -0.7700 C   0  0  1  0  0  0  0  0  0  0  0  0
    3.9397   -1.8818   -1.4260 C   0  0  1  0  0  0  0  0  0  0  0  0
    3.6595   -1.8740   -2.9305 C   0  0  1  0  0  0  0  0  0  0  0  0
    2.1511   -2.0012   -3.1656 C   0  0  1  0  0  0  0  0  0  0  0  0
    1.4619   -0.9403   -2.4177 N   0  0  0  0  0  0  0  0  0  0  0  0
    0.4051    0.0804   -3.1816 S   0  0  1  0  0  0  0  0  0  0  0  0
    0.4995    1.3302   -2.5120 O   0  0  0  0  0  0  0  0  0  0  0  0
    0.6347   -0.0739   -4.5754 O   0  0  0  0  0  0  0  0  0  0  0  0
   -1.2203   -0.5268   -2.8750 C   0  0  0  0  0  0  0  0  0  0  0  0
   -1.7358   -1.5460   -3.6537 C   0  0  0  0  0  0  0  0  0  0  0  0
   -3.0109   -2.0224   -3.4132 C   0  0  0  0  0  0  0  0  0  0  0  0
   -3.7705   -1.4799   -2.3936 C   0  0  0  0  0  0  0  0  0  0  0  0
   -3.2548   -0.4613   -1.6142 C   0  0  0  0  0  0  0  0  0  0  0  0
   -1.9780    0.0122   -1.8520 C   0  0  0  0  0  0  0  0  0  0  0  0
    0.6766    1.5463    1.7416 N   0  0  0  0  0  0  0  0  0  0  0  0
    0.8472    1.6057    3.1291 C   0  0  0  0  0  0  0  0  0  0  0  0
    2.0083    1.1117    3.7092 C   0  0  0  0  0  0  0  0  0  0  0  0
    2.1737    1.1718    5.0791 C   0  0  0  0  0  0  0  0  0  0  0  0
    1.1845    1.7227    5.8729 C   0  0  0  0  0  0  0  0  0  0  0  0
    1.3680    1.7863    7.3673 C   0  0  1  0  0  0  0  0  0  0  0  0
    1.9893    2.9920    7.7101 F   0  0  0  0  0  0  0  0  0  0  0  0
    0.1196    1.7103    7.9942 F   0  0  0  0  0  0  0  0  0  0  0  0
    2.1655    0.7155    7.7852 F   0  0  0  0  0  0  0  0  0  0  0  0
    0.0274    2.2159    5.2983 C   0  0  0  0  0  0  0  0  0  0  0  0
   -0.1416    2.1640    3.9286 C   0  0  0  0  0  0  0  0  0  0  0  0
    0.0047    0.4700   -0.7746 H   0  0  0  0  0  0  0  0  0  0  0  0
    1.5548    1.3426   -0.8364 H   0  0  0  0  0  0  0  0  0  0  0  0
    3.6079    0.2377   -1.2222 H   0  0  0  0  0  0  0  0  0  0  0  0
    3.4653   -0.6787    0.2977 H   0  0  0  0  0  0  0  0  0  0  0  0
    5.0144   -1.8162   -1.2564 H   0  0  0  0  0  0  0  0  0  0  0  0
    3.5594   -2.8058   -0.9905 H   0  0  0  0  0  0  0  0  0  0  0  0
    4.0174   -0.9394   -3.3624 H   0  0  0  0  0  0  0  0  0  0  0  0
    4.1729   -2.7128   -3.4005 H   0  0  0  0  0  0  0  0  0  0  0  0
    1.9369   -1.8969   -4.2292 H   0  0  0  0  0  0  0  0  0  0  0  0
    1.8075   -2.9745   -2.8153 H   0  0  0  0  0  0  0  0  0  0  0  0
   -1.1423   -1.9698   -4.4503 H   0  0  0  0  0  0  0  0  0  0  0  0
   -3.4139   -2.8181   -4.0221 H   0  0  0  0  0  0  0  0  0  0  0  0
   -4.7671   -1.8516   -2.2061 H   0  0  0  0  0  0  0  0  0  0  0  0
   -3.8483   -0.0372   -0.8178 H   0  0  0  0  0  0  0  0  0  0  0  0
   -1.5750    0.8079   -1.2431 H   0  0  0  0  0  0  0  0  0  0  0  0
    0.2525    2.2822    1.2732 H   0  0  0  0  0  0  0  0  0  0  0  0
    2.7809    0.6807    3.0898 H   0  0  0  0  0  0  0  0  0  0  0  0
    3.0764    0.7878    5.5308 H   0  0  0  0  0  0  0  0  0  0  0  0
   -0.7434    2.6456    5.9210 H   0  0  0  0  0  0  0  0  0  0  0  0
   -1.0455    2.5494    3.4804 H   0  0  0  0  0  0  0  0  0  0  0  0
  1  2  2  0
  2  3  1  0
  2 20  1  0
  3  4  1  0
  3 31  1  1
  3 32  1  0
  4  5  1  1
  4 10  1  0
  4  6  1  0
  6  7  1  0
  6 33  1  6
  6 34  1  0
  7  8  1  0
  7 35  1  6
  7 36  1  0
  8  9  1  0
  8 37  1  6
  8 38  1  0
  9 10  1  0
  9 39  1  6
  9 40  1  0
 11 10  1  1
 11 12  2  0
 11 13  2  0
 11 14  1  0
 14 19  2  0
 14 15  1  0
 15 16  2  0
 15 41  1  0
 16 17  1  0
 16 42  1  0
 17 18  2  0
 17 43  1  0
 18 19  1  0
 18 44  1  0
 19 45  1  0
 20 21  1  0
 20 46  1  0
 21 30  2  0
 21 22  1  0
 22 23  2  0
 22 47  1  0
 23 24  1  0
 23 48  1  0
 24 25  1  0
 24 29  2  0
 25 26  1  6
 25 27  1  0
 25 28  1  0
 29 30  1  0
 29 49  1  0
 30 50  1  0
M  END
$$$$
