ZINC000009090545
     RDKit          3D

 64 65  0  0  0  0  0  0  0  0999 V2000
   -5.4206   -1.9799    1.1479 C   0  0  1  0  0  0  0  0  0  0  0  0
   -4.0786   -2.6226    0.7918 C   0  0  1  0  0  0  0  0  0  0  0  0
   -3.0638   -2.2035    1.7617 N   0  0  0  0  0  0  0  0  0  0  0  0
   -2.9157   -2.9280    3.0264 C   0  0  1  0  0  0  0  0  0  0  0  0
   -2.0043   -4.1389    2.8168 C   0  0  1  0  0  0  0  0  0  0  0  0
   -2.0840   -0.9107    1.4285 S   0  0  1  0  0  0  0  0  0  0  0  0
   -0.9127   -1.0817    2.2147 O   0  0  0  0  0  0  0  0  0  0  0  0
   -2.0582   -0.7809    0.0136 O   0  0  0  0  0  0  0  0  0  0  0  0
   -2.8917    0.5286    2.0455 C   0  0  0  0  0  0  0  0  0  0  0  0
   -3.7616    1.2331    1.2336 C   0  0  0  0  0  0  0  0  0  0  0  0
   -4.3963    2.3617    1.7142 C   0  0  0  0  0  0  0  0  0  0  0  0
   -4.1604    2.7885    3.0145 C   0  0  0  0  0  0  0  0  0  0  0  0
   -4.8022    3.9312    3.5046 N   0  0  0  0  0  0  0  0  0  0  0  0
   -6.0482    4.2345    3.0898 C   0  0  0  0  0  0  0  0  0  0  0  0
   -6.6499    3.4687    2.3669 O   0  0  0  0  0  0  0  0  0  0  0  0
   -6.6937    5.5251    3.5242 C   0  0  1  0  0  0  0  0  0  0  0  0
   -8.0027    5.6170    2.9585 O   0  0  0  0  0  0  0  0  0  0  0  0
   -8.7258    6.7291    3.2539 C   0  0  0  0  0  0  0  0  0  0  0  0
   -8.1844    7.7143    4.0667 C   0  0  0  0  0  0  0  0  0  0  0  0
   -8.9213    8.8440    4.3652 C   0  0  0  0  0  0  0  0  0  0  0  0
  -10.1977    8.9931    3.8548 C   0  0  0  0  0  0  0  0  0  0  0  0
  -11.1352   10.4349    4.2378 S   0  0  1  0  0  0  0  0  0  0  0  0
  -12.5015   10.0802    4.0748 O   0  0  0  0  0  0  0  0  0  0  0  0
  -10.6049   10.9475    5.4524 O   0  0  0  0  0  0  0  0  0  0  0  0
  -10.8019   11.5609    3.0701 N   0  0  0  0  0  0  0  0  0  0  0  0
  -11.6172   11.6186    1.8543 C   0  0  1  0  0  0  0  0  0  0  0  0
  -12.7215   12.6629    2.0300 C   0  0  1  0  0  0  0  0  0  0  0  0
   -9.6918   12.4991    3.2529 C   0  0  1  0  0  0  0  0  0  0  0  0
   -8.4409   11.9497    2.5641 C   0  0  1  0  0  0  0  0  0  0  0  0
  -10.7394    8.0128    3.0441 C   0  0  0  0  0  0  0  0  0  0  0  0
  -10.0045    6.8836    2.7384 C   0  0  0  0  0  0  0  0  0  0  0  0
   -3.2866    2.0785    3.8275 C   0  0  0  0  0  0  0  0  0  0  0  0
   -2.6588    0.9480    3.3424 C   0  0  0  0  0  0  0  0  0  0  0  0
   -6.1756   -2.2918    0.4263 H   0  0  0  0  0  0  0  0  0  0  0  0
   -5.7208   -2.2953    2.1471 H   0  0  0  0  0  0  0  0  0  0  0  0
   -5.3214   -0.8947    1.1239 H   0  0  0  0  0  0  0  0  0  0  0  0
   -4.1777   -3.7079    0.8158 H   0  0  0  0  0  0  0  0  0  0  0  0
   -3.7784   -2.3072   -0.2074 H   0  0  0  0  0  0  0  0  0  0  0  0
   -2.4764   -2.2677    3.7741 H   0  0  0  0  0  0  0  0  0  0  0  0
   -3.8942   -3.2647    3.3689 H   0  0  0  0  0  0  0  0  0  0  0  0
   -2.4436   -4.7992    2.0690 H   0  0  0  0  0  0  0  0  0  0  0  0
   -1.0258   -3.8021    2.4742 H   0  0  0  0  0  0  0  0  0  0  0  0
   -1.8941   -4.6779    3.7577 H   0  0  0  0  0  0  0  0  0  0  0  0
   -3.9446    0.9007    0.2224 H   0  0  0  0  0  0  0  0  0  0  0  0
   -5.0750    2.9119    1.0794 H   0  0  0  0  0  0  0  0  0  0  0  0
   -4.3504    4.5051    4.1429 H   0  0  0  0  0  0  0  0  0  0  0  0
   -6.7654    5.5475    4.6116 H   0  0  0  0  0  0  0  0  0  0  0  0
   -6.0903    6.3661    3.1824 H   0  0  0  0  0  0  0  0  0  0  0  0
   -7.1877    7.5981    4.4662 H   0  0  0  0  0  0  0  0  0  0  0  0
   -8.5002    9.6113    4.9979 H   0  0  0  0  0  0  0  0  0  0  0  0
  -10.9882   11.8939    1.0078 H   0  0  0  0  0  0  0  0  0  0  0  0
  -12.0661   10.6424    1.6711 H   0  0  0  0  0  0  0  0  0  0  0  0
  -13.3282   12.7059    1.1254 H   0  0  0  0  0  0  0  0  0  0  0  0
  -13.3506   12.3876    2.8765 H   0  0  0  0  0  0  0  0  0  0  0  0
  -12.2727   13.6392    2.2131 H   0  0  0  0  0  0  0  0  0  0  0  0
   -9.9542   13.4622    2.8151 H   0  0  0  0  0  0  0  0  0  0  0  0
   -9.4944   12.6256    4.3174 H   0  0  0  0  0  0  0  0  0  0  0  0
   -8.1785   10.9866    3.0019 H   0  0  0  0  0  0  0  0  0  0  0  0
   -8.6383   11.8232    1.4996 H   0  0  0  0  0  0  0  0  0  0  0  0
   -7.6150   12.6478    2.7001 H   0  0  0  0  0  0  0  0  0  0  0  0
  -11.7364    8.1317    2.6464 H   0  0  0  0  0  0  0  0  0  0  0  0
  -10.4281    6.1182    2.1051 H   0  0  0  0  0  0  0  0  0  0  0  0
   -3.1011    2.4079    4.8391 H   0  0  0  0  0  0  0  0  0  0  0  0
   -1.9791    0.3954    3.9742 H   0  0  0  0  0  0  0  0  0  0  0  0
  1  2  1  0
  1 34  1  6
  1 35  1  0
  1 36  1  0
  2  3  1  0
  2 37  1  6
  2 38  1  0
  3  4  1  0
  6  3  1  6
  4  5  1  0
  4 39  1  1
  4 40  1  0
  5 41  1  6
  5 42  1  0
  5 43  1  0
  6  7  2  0
  6  8  2  0
  6  9  1  0
  9 33  2  0
  9 10  1  0
 10 11  2  0
 10 44  1  0
 11 12  1  0
 11 45  1  0
 12 13  1  0
 12 32  2  0
 13 14  1  0
 13 46  1  0
 14 15  2  0
 14 16  1  0
 16 17  1  0
 16 47  1  1
 16 48  1  0
 17 18  1  0
 18 31  2  0
 18 19  1  0
 19 20  2  0
 19 49  1  0
 20 21  1  0
 20 50  1  0
 21 22  1  0
 21 30  2  0
 22 23  2  0
 22 24  2  0
 22 25  1  6
 25 26  1  0
 25 28  1  0
 26 27  1  0
 26 51  1  6
 26 52  1  0
 27 53  1  6
 27 54  1  0
 27 55  1  0
 28 29  1  0
 28 56  1  6
 28 57  1  0
 29 58  1  1
 29 59  1  0
 29 60  1  0
 30 31  1  0
 30 61  1  0
 31 62  1  0
 32 33  1  0
 32 63  1  0
 33 64  1  0
M  END
$$$$
