ZINC000096122006
     RDKit          3D

 47 48  0  0  0  0  0  0  0  0999 V2000
   -0.0187    1.5258    0.0104 C   0  0  1  0  0  0  0  0  0  0  0  0
    0.0021   -0.0041    0.0020 C   0  0  1  0  0  0  0  0  0  0  0  0
    0.7421   -0.5109    1.2415 C   0  0  1  0  0  0  0  0  0  0  0  0
   -1.4333   -0.5336    0.0129 C   0  0  1  0  0  0  0  0  0  0  0  0
   -2.2655   -0.0565   -1.5267 S   0  0  1  0  0  0  0  0  0  0  0  0
   -2.3878    1.3589   -1.5554 O   0  0  0  0  0  0  0  0  0  0  0  0
   -1.6287   -0.7200   -2.6100 O   0  0  0  0  0  0  0  0  0  0  0  0
   -3.9157   -0.7746   -1.2988 C   0  0  1  0  0  0  0  0  0  0  0  0
   -4.8675    0.1092   -0.4725 C   0  0  1  0  0  0  0  0  0  0  0  0
   -5.9016   -0.2548   -1.4605 N   0  0  0  0  0  0  0  0  0  0  0  0
   -7.2477   -0.3169   -1.4395 C   0  0  0  0  0  0  0  0  0  0  0  0
   -7.8524   -0.0293   -0.4282 O   0  0  0  0  0  0  0  0  0  0  0  0
   -8.0017   -0.7438   -2.6726 C   0  0  1  0  0  0  0  0  0  0  0  0
   -9.5038   -0.7291   -2.3825 C   0  0  1  0  0  0  0  0  0  0  0  0
  -10.2577   -1.1560   -3.6156 C   0  0  0  0  0  0  0  0  0  0  0  0
  -10.6568   -0.2119   -4.5431 C   0  0  0  0  0  0  0  0  0  0  0  0
  -11.3484   -0.6034   -5.6742 C   0  0  0  0  0  0  0  0  0  0  0  0
  -11.6404   -1.9391   -5.8780 C   0  0  0  0  0  0  0  0  0  0  0  0
  -12.3948   -2.3658   -7.1108 C   0  0  1  0  0  0  0  0  0  0  0  0
  -11.4879   -2.6488   -8.1378 F   0  0  0  0  0  0  0  0  0  0  0  0
  -13.1469   -3.5102   -6.8245 F   0  0  0  0  0  0  0  0  0  0  0  0
  -13.2498   -1.3348   -7.5146 F   0  0  0  0  0  0  0  0  0  0  0  0
  -11.2402   -2.8833   -4.9511 C   0  0  0  0  0  0  0  0  0  0  0  0
  -10.5453   -2.4922   -3.8219 C   0  0  0  0  0  0  0  0  0  0  0  0
   -4.8696   -0.5234   -2.4807 C   0  0  1  0  0  0  0  0  0  0  0  0
    1.0039    1.9031    0.0027 H   0  0  0  0  0  0  0  0  0  0  0  0
   -0.5459    1.8868   -0.8726 H   0  0  0  0  0  0  0  0  0  0  0  0
   -0.5289    1.8773    0.9072 H   0  0  0  0  0  0  0  0  0  0  0  0
    0.5123   -0.3556   -0.8948 H   0  0  0  0  0  0  0  0  0  0  0  0
    0.2319   -0.1594    2.1383 H   0  0  0  0  0  0  0  0  0  0  0  0
    0.7568   -1.6008    1.2356 H   0  0  0  0  0  0  0  0  0  0  0  0
    1.7647   -0.1336    1.2338 H   0  0  0  0  0  0  0  0  0  0  0  0
   -1.4190   -1.6203    0.0965 H   0  0  0  0  0  0  0  0  0  0  0  0
   -1.9701   -0.1109    0.8621 H   0  0  0  0  0  0  0  0  0  0  0  0
   -3.8853   -1.8142   -0.9727 H   0  0  0  0  0  0  0  0  0  0  0  0
   -5.0632   -0.2730    0.5294 H   0  0  0  0  0  0  0  0  0  0  0  0
   -4.6040    1.1668   -0.4816 H   0  0  0  0  0  0  0  0  0  0  0  0
   -7.7825   -0.0555   -3.4889 H   0  0  0  0  0  0  0  0  0  0  0  0
   -7.6959   -1.7512   -2.9548 H   0  0  0  0  0  0  0  0  0  0  0  0
   -9.7230   -1.4174   -1.5662 H   0  0  0  0  0  0  0  0  0  0  0  0
   -9.8096    0.2783   -2.1002 H   0  0  0  0  0  0  0  0  0  0  0  0
  -10.4286    0.8317   -4.3839 H   0  0  0  0  0  0  0  0  0  0  0  0
  -11.6608    0.1343   -6.3985 H   0  0  0  0  0  0  0  0  0  0  0  0
  -11.4680   -3.9269   -5.1105 H   0  0  0  0  0  0  0  0  0  0  0  0
  -10.2325   -3.2300   -3.0978 H   0  0  0  0  0  0  0  0  0  0  0  0
   -4.6067    0.3484   -3.0798 H   0  0  0  0  0  0  0  0  0  0  0  0
   -5.0669   -1.4107   -3.0822 H   0  0  0  0  0  0  0  0  0  0  0  0
  1  2  1  0
  1 26  1  6
  1 27  1  0
  1 28  1  0
  2  3  1  0
  2  4  1  0
  2 29  1  6
  3 30  1  1
  3 31  1  0
  3 32  1  0
  4  5  1  0
  4 33  1  1
  4 34  1  0
  5  6  2  0
  5  7  2  0
  5  8  1  1
  8 25  1  0
  8  9  1  0
  8 35  1  1
  9 10  1  0
  9 36  1  1
  9 37  1  0
 10 11  1  0
 10 25  1  0
 11 12  2  0
 11 13  1  0
 13 14  1  0
 13 38  1  6
 13 39  1  0
 14 15  1  0
 14 40  1  1
 14 41  1  0
 15 24  2  0
 15 16  1  0
 16 17  2  0
 16 42  1  0
 17 18  1  0
 17 43  1  0
 18 19  1  0
 18 23  2  0
 19 20  1  6
 19 21  1  0
 19 22  1  0
 23 24  1  0
 23 44  1  0
 24 45  1  0
 25 46  1  6
 25 47  1  0
M  END
$$$$
