ZINC000156102730
     RDKit          3D

 36 37  0  0  1  0  0  0  0  0999 V2000
   -2.0264    1.5000    0.9742 N   0  0  2  0  0  0  0  0  0  0  0  0
   -2.5699    1.8439    1.7517 H   0  0  0  0  0  0  0  0  0  0  0  0
   -2.0818    0.4930    0.9444 H   0  0  0  0  0  0  0  0  0  0  0  0
   -2.3903    1.8825    0.1143 H   0  0  0  0  0  0  0  0  0  0  0  0
   -0.6250    1.9089    1.1375 C   0  0  1  0  0  0  0  0  0  0  0  0
   -0.0465    1.2563    2.3947 C   0  0  2  0  0  0  0  0  0  0  0  0
   -0.1737    0.1750    2.3429 H   0  0  0  0  0  0  0  0  0  0  0  0
   -0.7580    1.8090    3.6476 C   0  0  1  0  0  0  0  0  0  0  0  0
    0.3955    1.9272    4.6785 C   0  0  1  0  0  0  0  0  0  0  0  0
    1.5815    2.3414    3.7721 C   0  0  1  0  0  0  0  0  0  0  0  0
    1.3808    1.5866    2.5179 N   0  0  0  0  0  0  0  0  0  0  0  0
    2.5660    1.1838    1.4337 S   0  0  1  0  0  0  0  0  0  0  0  0
    1.9044    0.8541    0.2201 O   0  0  0  0  0  0  0  0  0  0  0  0
    3.5574    2.1974    1.5280 O   0  0  0  0  0  0  0  0  0  0  0  0
    3.3172   -0.3021    2.0104 C   0  0  0  0  0  0  0  0  0  0  0  0
    4.4001   -0.2416    2.8675 C   0  0  0  0  0  0  0  0  0  0  0  0
    4.9894   -1.4073    3.3199 C   0  0  0  0  0  0  0  0  0  0  0  0
    4.4956   -2.6335    2.9155 C   0  0  0  0  0  0  0  0  0  0  0  0
    5.1385   -3.9043    3.4083 C   0  0  1  0  0  0  0  0  0  0  0  0
    4.5199   -4.3097    4.5959 F   0  0  0  0  0  0  0  0  0  0  0  0
    4.9937   -4.9054    2.4418 F   0  0  0  0  0  0  0  0  0  0  0  0
    6.4986   -3.6776    3.6448 F   0  0  0  0  0  0  0  0  0  0  0  0
    3.4119   -2.6940    2.0595 C   0  0  0  0  0  0  0  0  0  0  0  0
    2.8202   -1.5283    1.6101 C   0  0  0  0  0  0  0  0  0  0  0  0
   -0.0504    1.5926    0.2668 H   0  0  0  0  0  0  0  0  0  0  0  0
   -0.5717    2.9933    1.2336 H   0  0  0  0  0  0  0  0  0  0  0  0
   -1.1945    2.7867    3.4435 H   0  0  0  0  0  0  0  0  0  0  0  0
   -1.5187    1.1115    3.9983 H   0  0  0  0  0  0  0  0  0  0  0  0
    0.1810    2.6987    5.4181 H   0  0  0  0  0  0  0  0  0  0  0  0
    0.5883    0.9689    5.1606 H   0  0  0  0  0  0  0  0  0  0  0  0
    1.5550    3.4139    3.5792 H   0  0  0  0  0  0  0  0  0  0  0  0
    2.5280    2.0615    4.2344 H   0  0  0  0  0  0  0  0  0  0  0  0
    4.7858    0.7164    3.1834 H   0  0  0  0  0  0  0  0  0  0  0  0
    5.8359   -1.3600    3.9889 H   0  0  0  0  0  0  0  0  0  0  0  0
    3.0259   -3.6520    1.7439 H   0  0  0  0  0  0  0  0  0  0  0  0
    1.9735   -1.5756    0.9414 H   0  0  0  0  0  0  0  0  0  0  0  0
  1  2  1  1
  1  3  1  0
  1  4  1  0
  1  5  1  0
  5  6  1  0
  5 25  1  6
  5 26  1  0
  6  7  1  6
  6 11  1  0
  6  8  1  0
  8  9  1  0
  8 27  1  6
  8 28  1  0
  9 10  1  0
  9 29  1  1
  9 30  1  0
 10 11  1  0
 10 31  1  6
 10 32  1  0
 12 11  1  1
 12 13  2  0
 12 14  2  0
 12 15  1  0
 15 24  2  0
 15 16  1  0
 16 17  2  0
 16 33  1  0
 17 18  1  0
 17 34  1  0
 18 19  1  0
 18 23  2  0
 19 20  1  1
 19 21  1  0
 19 22  1  0
 23 24  1  0
 23 35  1  0
 24 36  1  0
M  CHG  1   1   1
M  END
$$$$
