ZINC000216013620
     RDKit          3D

 47 48  0  0  1  0  0  0  0  0999 V2000
   -0.0859    1.4611    0.0124 C   0  0  1  0  0  0  0  0  0  0  0  0
   -0.0256   -0.0026    0.0033 N   0  0  0  0  0  0  0  0  0  0  0  0
    0.1173   -0.7377    1.2625 C   0  0  1  0  0  0  0  0  0  0  0  0
   -1.2685   -1.0535    1.8288 C   0  0  1  0  0  0  0  0  0  0  0  0
   -1.1192   -1.8212    3.1438 C   0  0  2  0  0  0  0  0  0  0  0  0
   -0.5045   -2.7064    2.9803 H   0  0  0  0  0  0  0  0  0  0  0  0
   -2.5014   -2.2453    3.6472 C   0  0  1  0  0  0  0  0  0  0  0  0
   -2.3488   -2.9602    4.9933 C   0  0  1  0  0  0  0  0  0  0  0  0
   -1.6332   -2.0279    5.9757 C   0  0  1  0  0  0  0  0  0  0  0  0
   -0.2845   -1.6122    5.3825 C   0  0  1  0  0  0  0  0  0  0  0  0
   -0.4958   -0.9815    4.1177 O   0  0  0  0  0  0  0  0  0  0  0  0
   -0.1016   -0.6730   -1.1634 C   0  0  0  0  0  0  0  0  0  0  0  0
   -0.1516   -1.8857   -1.1644 O   0  0  0  0  0  0  0  0  0  0  0  0
   -0.1242    0.0750   -2.4528 C   0  0  0  0  0  0  0  0  0  0  0  0
    0.0409    1.2715   -2.4599 O   0  0  0  0  0  0  0  0  0  0  0  0
   -0.3531   -0.6617   -3.7474 C   0  0  1  0  0  0  0  0  0  0  0  0
   -0.3293    0.3319   -4.9107 C   0  0  1  0  0  0  0  0  0  0  0  0
   -0.5582   -0.4048   -6.2053 C   0  0  0  0  0  0  0  0  0  0  0  0
    0.5166   -0.9112   -6.9118 C   0  0  0  0  0  0  0  0  0  0  0  0
    0.3067   -1.5869   -8.0993 C   0  0  0  0  0  0  0  0  0  0  0  0
   -0.9782   -1.7567   -8.5800 C   0  0  0  0  0  0  0  0  0  0  0  0
   -2.0531   -1.2511   -7.8731 C   0  0  0  0  0  0  0  0  0  0  0  0
   -1.8435   -0.5791   -6.6834 C   0  0  0  0  0  0  0  0  0  0  0  0
    0.9088    1.8669   -0.1718 H   0  0  0  0  0  0  0  0  0  0  0  0
   -0.7673    1.8015   -0.7674 H   0  0  0  0  0  0  0  0  0  0  0  0
   -0.4442    1.8040    0.9830 H   0  0  0  0  0  0  0  0  0  0  0  0
    0.6563   -1.6676    1.0812 H   0  0  0  0  0  0  0  0  0  0  0  0
    0.6720   -0.1297    1.9772 H   0  0  0  0  0  0  0  0  0  0  0  0
   -1.8075   -0.1236    2.0101 H   0  0  0  0  0  0  0  0  0  0  0  0
   -1.8231   -1.6616    1.1141 H   0  0  0  0  0  0  0  0  0  0  0  0
   -3.1299   -1.3635    3.7722 H   0  0  0  0  0  0  0  0  0  0  0  0
   -2.9601   -2.9214    2.9257 H   0  0  0  0  0  0  0  0  0  0  0  0
   -3.3337   -3.2154    5.3843 H   0  0  0  0  0  0  0  0  0  0  0  0
   -1.7616   -3.8687    4.8592 H   0  0  0  0  0  0  0  0  0  0  0  0
   -2.2441   -1.1418    6.1478 H   0  0  0  0  0  0  0  0  0  0  0  0
   -1.4710   -2.5486    6.9195 H   0  0  0  0  0  0  0  0  0  0  0  0
    0.2104   -0.9148    6.0583 H   0  0  0  0  0  0  0  0  0  0  0  0
    0.3411   -2.4947    5.2484 H   0  0  0  0  0  0  0  0  0  0  0  0
    0.4331   -1.4036   -3.8872 H   0  0  0  0  0  0  0  0  0  0  0  0
   -1.3218   -1.1604   -3.7153 H   0  0  0  0  0  0  0  0  0  0  0  0
   -1.1155    1.0738   -4.7709 H   0  0  0  0  0  0  0  0  0  0  0  0
    0.6393    0.8306   -4.9428 H   0  0  0  0  0  0  0  0  0  0  0  0
    1.5205   -0.7785   -6.5361 H   0  0  0  0  0  0  0  0  0  0  0  0
    1.1465   -1.9819   -8.6516 H   0  0  0  0  0  0  0  0  0  0  0  0
   -1.1422   -2.2840   -9.5082 H   0  0  0  0  0  0  0  0  0  0  0  0
   -3.0570   -1.3835   -8.2489 H   0  0  0  0  0  0  0  0  0  0  0  0
   -2.6833   -0.1841   -6.1311 H   0  0  0  0  0  0  0  0  0  0  0  0
  1  2  1  0
  1 24  1  6
  1 25  1  0
  1 26  1  0
  2  3  1  0
  2 12  1  0
  3  4  1  0
  3 27  1  6
  3 28  1  0
  4  5  1  0
  4 29  1  1
  4 30  1  0
  5  6  1  6
  5 11  1  0
  5  7  1  0
  7  8  1  0
  7 31  1  1
  7 32  1  0
  8  9  1  0
  8 33  1  1
  8 34  1  0
  9 10  1  0
  9 35  1  1
  9 36  1  0
 10 11  1  0
 10 37  1  1
 10 38  1  0
 12 13  2  0
 12 14  1  0
 14 15  2  0
 14 16  1  0
 16 17  1  0
 16 39  1  6
 16 40  1  0
 17 18  1  0
 17 41  1  1
 17 42  1  0
 18 23  2  0
 18 19  1  0
 19 20  2  0
 19 43  1  0
 20 21  1  0
 20 44  1  0
 21 22  2  0
 21 45  1  0
 22 23  1  0
 22 46  1  0
 23 47  1  0
M  END
$$$$
