ZINC000060348752
     RDKit          3D

 42 44  0  0  1  0  0  0  0  0999 V2000
   -0.5559    0.1522   -0.4135 O   0  0  0  0  0  0  0  0  0  0  0  0
   -0.0321    1.4117   -0.0155 S   0  0  1  0  0  0  0  0  0  0  0  0
    1.3399    1.6217    0.2893 O   0  0  0  0  0  0  0  0  0  0  0  0
   -0.4356    2.5471   -1.3012 C   0  0  0  0  0  0  0  0  0  0  0  0
   -1.4390    2.2430   -2.2020 C   0  0  0  0  0  0  0  0  0  0  0  0
   -1.7556    3.1337   -3.2106 C   0  0  0  0  0  0  0  0  0  0  0  0
   -1.0690    4.3287   -3.3181 C   0  0  0  0  0  0  0  0  0  0  0  0
   -1.4138    5.2995   -4.4180 C   0  0  1  0  0  0  0  0  0  0  0  0
   -2.4050    6.1791   -3.9699 F   0  0  0  0  0  0  0  0  0  0  0  0
   -0.2722    6.0256   -4.7739 F   0  0  0  0  0  0  0  0  0  0  0  0
   -1.8841    4.5949   -5.5314 F   0  0  0  0  0  0  0  0  0  0  0  0
   -0.0665    4.6333   -2.4165 C   0  0  0  0  0  0  0  0  0  0  0  0
    0.2475    3.7443   -1.4055 C   0  0  0  0  0  0  0  0  0  0  0  0
   -0.8849    1.8694    1.3282 N   0  0  0  0  0  0  0  0  0  0  0  0
   -0.7788    3.2380    1.8519 C   0  0  1  0  0  0  0  0  0  0  0  0
   -2.1869    3.8278    1.9795 C   0  0  1  0  0  0  0  0  0  0  0  0
   -3.0513    2.8945    2.8303 C   0  0  1  0  0  0  0  0  0  0  0  0
   -3.1592    1.5304    2.1449 C   0  0  1  0  0  0  0  0  0  0  0  0
   -1.7668    0.9164    2.0156 C   0  0  1  0  0  0  0  0  0  0  0  0
   -1.3663    0.7069    3.0075 H   0  0  0  0  0  0  0  0  0  0  0  0
   -1.8518   -0.3828    1.2119 C   0  0  1  0  0  0  0  0  0  0  0  0
   -0.5866   -1.0773    1.2556 O   0  0  0  0  0  0  0  0  0  0  0  0
   -0.9481   -2.4447    0.9438 C   0  0  1  0  0  0  0  0  0  0  0  0
   -2.3147   -2.6084    1.6446 C   0  0  1  0  0  0  0  0  0  0  0  0
   -2.8159   -1.2692    1.8054 O   0  0  0  0  0  0  0  0  0  0  0  0
   -1.9754    1.3094   -2.1180 H   0  0  0  0  0  0  0  0  0  0  0  0
   -2.5391    2.8958   -3.9149 H   0  0  0  0  0  0  0  0  0  0  0  0
    0.4697    5.5671   -2.5002 H   0  0  0  0  0  0  0  0  0  0  0  0
    1.0307    3.9824   -0.7011 H   0  0  0  0  0  0  0  0  0  0  0  0
   -0.3007    3.2184    2.8313 H   0  0  0  0  0  0  0  0  0  0  0  0
   -0.1884    3.8467    1.1670 H   0  0  0  0  0  0  0  0  0  0  0  0
   -2.1297    4.8062    2.4565 H   0  0  0  0  0  0  0  0  0  0  0  0
   -2.6293    3.9309    0.9887 H   0  0  0  0  0  0  0  0  0  0  0  0
   -2.5953    2.7722    3.8127 H   0  0  0  0  0  0  0  0  0  0  0  0
   -4.0468    3.3239    2.9432 H   0  0  0  0  0  0  0  0  0  0  0  0
   -3.7941    0.8736    2.7396 H   0  0  0  0  0  0  0  0  0  0  0  0
   -3.5925    1.6551    1.1525 H   0  0  0  0  0  0  0  0  0  0  0  0
   -2.1266   -0.1671    0.1795 H   0  0  0  0  0  0  0  0  0  0  0  0
   -1.0480   -2.5814   -0.1330 H   0  0  0  0  0  0  0  0  0  0  0  0
   -0.2174   -3.1405    1.3560 H   0  0  0  0  0  0  0  0  0  0  0  0
   -2.9916   -3.1937    1.0223 H   0  0  0  0  0  0  0  0  0  0  0  0
   -2.1868   -3.0840    2.6171 H   0  0  0  0  0  0  0  0  0  0  0  0
  1  2  2  0
  2  3  2  0
  2  4  1  0
  2 14  1  1
  4 13  2  0
  4  5  1  0
  5  6  2  0
  5 26  1  0
  6  7  1  0
  6 27  1  0
  7  8  1  0
  7 12  2  0
  8  9  1  1
  8 10  1  0
  8 11  1  0
 12 13  1  0
 12 28  1  0
 13 29  1  0
 14 19  1  0
 14 15  1  0
 15 16  1  0
 15 30  1  1
 15 31  1  0
 16 17  1  0
 16 32  1  1
 16 33  1  0
 17 18  1  0
 17 34  1  1
 17 35  1  0
 18 19  1  0
 18 36  1  1
 18 37  1  0
 19 20  1  1
 19 21  1  0
 21 25  1  0
 21 22  1  0
 21 38  1  6
 22 23  1  0
 23 24  1  0
 23 39  1  6
 23 40  1  0
 24 25  1  0
 24 41  1  6
 24 42  1  0
M  END
$$$$
