ZINC000012922352
     RDKit          3D

 64 66  0  0  1  0  0  0  0  0999 V2000
    6.1262   -4.6277    4.9968 C   0  0  1  0  0  0  0  0  0  0  0  0
    6.0065   -3.1209    5.2333 C   0  0  1  0  0  0  0  0  0  0  0  0
    4.7249   -2.6166    4.6215 C   0  0  0  0  0  0  0  0  0  0  0  0
    4.7102   -2.1834    3.3086 C   0  0  0  0  0  0  0  0  0  0  0  0
    3.5362   -1.7194    2.7435 C   0  0  0  0  0  0  0  0  0  0  0  0
    2.3745   -1.6879    3.4894 C   0  0  0  0  0  0  0  0  0  0  0  0
    2.3859   -2.1228    4.8084 C   0  0  0  0  0  0  0  0  0  0  0  0
    1.2103   -2.0926    5.5668 N   0  0  0  0  0  0  0  0  0  0  0  0
    1.0886   -2.6293    6.9273 C   0  0  1  0  0  0  0  0  0  0  0  0
   -0.1984   -1.9998    7.5051 C   0  0  1  0  0  0  0  0  0  0  0  0
   -0.7280   -2.7090    8.1411 H   0  0  0  0  0  0  0  0  0  0  0  0
    0.1126   -0.7320    8.2582 C   0  0  0  0  0  0  0  0  0  0  0  0
    1.2579   -0.3416    8.3418 O   0  0  0  0  0  0  0  0  0  0  0  0
   -0.8820   -0.0320    8.8390 N   0  0  0  0  0  0  0  0  0  0  0  0
   -0.6112    1.2063    9.4361 C   0  0  0  0  0  0  0  0  0  0  0  0
    0.3591    2.0395    8.8998 C   0  0  0  0  0  0  0  0  0  0  0  0
    0.6246    3.2607    9.4907 C   0  0  0  0  0  0  0  0  0  0  0  0
    1.8578    4.3178    8.8078 S   0  0  1  0  0  0  0  0  0  0  0  0
    2.2883    5.1662    9.8634 O   0  0  0  0  0  0  0  0  0  0  0  0
    2.7412    3.4816    8.0733 O   0  0  0  0  0  0  0  0  0  0  0  0
    1.1080    5.2937    7.6998 N   0  0  0  0  0  0  0  0  0  0  0  0
    0.5464    6.5805    8.1183 C   0  0  1  0  0  0  0  0  0  0  0  0
    1.5676    7.6904    7.8611 C   0  0  1  0  0  0  0  0  0  0  0  0
    1.0062    4.8703    6.3010 C   0  0  1  0  0  0  0  0  0  0  0  0
   -0.3445    4.1893    6.0713 C   0  0  1  0  0  0  0  0  0  0  0  0
   -0.0754    3.6547   10.6158 C   0  0  0  0  0  0  0  0  0  0  0  0
   -1.0440    2.8291   11.1565 C   0  0  0  0  0  0  0  0  0  0  0  0
   -1.3200    1.6064   10.5670 C   0  0  0  0  0  0  0  0  0  0  0  0
   -2.2725    0.7937   11.0973 O   0  0  0  0  0  0  0  0  0  0  0  0
   -2.9503    1.2639   12.2641 C   0  0  1  0  0  0  0  0  0  0  0  0
   -1.0055   -1.6979    6.2212 C   0  0  1  0  0  0  0  0  0  0  0  0
    0.0491   -1.5631    5.1450 C   0  0  0  0  0  0  0  0  0  0  0  0
   -0.1293   -1.0575    4.0571 O   0  0  0  0  0  0  0  0  0  0  0  0
    3.5650   -2.5929    5.3712 C   0  0  0  0  0  0  0  0  0  0  0  0
    6.1316   -4.8280    3.9254 H   0  0  0  0  0  0  0  0  0  0  0  0
    7.0531   -4.9925    5.4393 H   0  0  0  0  0  0  0  0  0  0  0  0
    5.2790   -5.1362    5.4572 H   0  0  0  0  0  0  0  0  0  0  0  0
    6.0010   -2.9206    6.3048 H   0  0  0  0  0  0  0  0  0  0  0  0
    6.8536   -2.6124    4.7730 H   0  0  0  0  0  0  0  0  0  0  0  0
    5.6174   -2.2070    2.7231 H   0  0  0  0  0  0  0  0  0  0  0  0
    3.5281   -1.3811    1.7179 H   0  0  0  0  0  0  0  0  0  0  0  0
    1.4581   -1.3252    3.0477 H   0  0  0  0  0  0  0  0  0  0  0  0
    0.9969   -3.7151    6.8977 H   0  0  0  0  0  0  0  0  0  0  0  0
    1.9520   -2.3392    7.5260 H   0  0  0  0  0  0  0  0  0  0  0  0
   -1.7853   -0.3855    8.8435 H   0  0  0  0  0  0  0  0  0  0  0  0
    0.9075    1.7341    8.0209 H   0  0  0  0  0  0  0  0  0  0  0  0
   -0.3612    6.7830    7.5498 H   0  0  0  0  0  0  0  0  0  0  0  0
    0.3089    6.5447    9.1815 H   0  0  0  0  0  0  0  0  0  0  0  0
    1.8052    7.7263    6.7979 H   0  0  0  0  0  0  0  0  0  0  0  0
    1.1498    8.6478    8.1725 H   0  0  0  0  0  0  0  0  0  0  0  0
    2.4753    7.4879    8.4296 H   0  0  0  0  0  0  0  0  0  0  0  0
    1.0892    5.7412    5.6508 H   0  0  0  0  0  0  0  0  0  0  0  0
    1.8097    4.1696    6.0741 H   0  0  0  0  0  0  0  0  0  0  0  0
   -0.4202    3.8742    5.0306 H   0  0  0  0  0  0  0  0  0  0  0  0
   -0.4275    3.3184    6.7215 H   0  0  0  0  0  0  0  0  0  0  0  0
   -1.1480    4.8900    6.2982 H   0  0  0  0  0  0  0  0  0  0  0  0
    0.1351    4.6098   11.0739 H   0  0  0  0  0  0  0  0  0  0  0  0
   -1.5888    3.1398   12.0357 H   0  0  0  0  0  0  0  0  0  0  0  0
   -2.2272    1.4278   13.0631 H   0  0  0  0  0  0  0  0  0  0  0  0
   -3.4585    2.2009   12.0362 H   0  0  0  0  0  0  0  0  0  0  0  0
   -3.6822    0.5218   12.5830 H   0  0  0  0  0  0  0  0  0  0  0  0
   -1.6841   -2.5203    5.9949 H   0  0  0  0  0  0  0  0  0  0  0  0
   -1.5583   -0.7646    6.3288 H   0  0  0  0  0  0  0  0  0  0  0  0
    3.5771   -2.9318    6.3966 H   0  0  0  0  0  0  0  0  0  0  0  0
  1  2  1  0
  1 35  1  6
  1 36  1  0
  1 37  1  0
  2  3  1  0
  2 38  1  1
  2 39  1  0
  3 34  2  0
  3  4  1  0
  4  5  2  0
  4 40  1  0
  5  6  1  0
  5 41  1  0
  6  7  2  0
  6 42  1  0
  7  8  1  0
  7 34  1  0
  8 32  1  0
  8  9  1  0
  9 10  1  0
  9 43  1  6
  9 44  1  0
 10 11  1  1
 10 12  1  0
 10 31  1  0
 12 13  2  0
 12 14  1  0
 14 15  1  0
 14 45  1  0
 15 28  2  0
 15 16  1  0
 16 17  2  0
 16 46  1  0
 17 18  1  0
 17 26  1  0
 18 19  2  0
 18 20  2  0
 18 21  1  6
 21 22  1  0
 21 24  1  0
 22 23  1  0
 22 47  1  6
 22 48  1  0
 23 49  1  6
 23 50  1  0
 23 51  1  0
 24 25  1  0
 24 52  1  6
 24 53  1  0
 25 54  1  6
 25 55  1  0
 25 56  1  0
 26 27  2  0
 26 57  1  0
 27 28  1  0
 27 58  1  0
 28 29  1  0
 29 30  1  0
 30 59  1  1
 30 60  1  0
 30 61  1  0
 31 32  1  0
 31 62  1  6
 31 63  1  0
 32 33  2  0
 34 64  1  0
M  END
$$$$
