ZINC000053891755
     RDKit          3D

 43 45  0  0  1  0  0  0  0  0999 V2000
   -0.1458    1.8618    0.8451 N   0  0  0  0  0  0  0  0  0  0  0  0
    0.1346    0.6289    1.3117 C   0  0  0  0  0  0  0  0  0  0  0  0
    1.0997    0.4557    2.0256 O   0  0  0  0  0  0  0  0  0  0  0  0
   -0.7509   -0.5345    0.9466 C   0  0  1  0  0  0  0  0  0  0  0  0
   -0.7834   -0.6681   -0.1347 H   0  0  0  0  0  0  0  0  0  0  0  0
   -0.2681   -1.8326    1.6459 C   0  0  1  0  0  0  0  0  0  0  0  0
   -1.5812   -2.6508    1.7239 C   0  0  1  0  0  0  0  0  0  0  0  0
   -2.6319   -1.6530    1.9960 N   0  0  0  0  0  0  0  0  0  0  0  0
   -3.8183   -1.9024    2.5848 C   0  0  0  0  0  0  0  0  0  0  0  0
   -4.5715   -0.9847    2.8471 O   0  0  0  0  0  0  0  0  0  0  0  0
   -4.2033   -3.2897    2.9112 C   0  0  0  0  0  0  0  0  0  0  0  0
   -3.9069   -4.3268    2.0270 C   0  0  0  0  0  0  0  0  0  0  0  0
   -4.2691   -5.6215    2.3370 C   0  0  0  0  0  0  0  0  0  0  0  0
   -4.9272   -5.9003    3.5231 C   0  0  0  0  0  0  0  0  0  0  0  0
   -5.2288   -4.8863    4.4105 C   0  0  0  0  0  0  0  0  0  0  0  0
   -4.8662   -3.5748    4.1186 C   0  0  0  0  0  0  0  0  0  0  0  0
   -5.1879   -2.4835    5.0681 C   0  0  0  0  0  0  0  0  0  0  0  0
   -4.1742   -1.6614    5.5590 C   0  0  0  0  0  0  0  0  0  0  0  0
   -4.4799   -0.6469    6.4430 C   0  0  0  0  0  0  0  0  0  0  0  0
   -5.7889   -0.4446    6.8423 C   0  0  0  0  0  0  0  0  0  0  0  0
   -6.1160    0.6652    7.8079 C   0  0  1  0  0  0  0  0  0  0  0  0
   -6.3980    1.8355    7.0952 F   0  0  0  0  0  0  0  0  0  0  0  0
   -7.2308    0.3046    8.5724 F   0  0  0  0  0  0  0  0  0  0  0  0
   -5.0228    0.8856    8.6527 F   0  0  0  0  0  0  0  0  0  0  0  0
   -6.7988   -1.2567    6.3583 C   0  0  0  0  0  0  0  0  0  0  0  0
   -6.5061   -2.2711    5.4698 C   0  0  0  0  0  0  0  0  0  0  0  0
   -2.1721   -0.3385    1.5154 C   0  0  1  0  0  0  0  0  0  0  0  0
    0.4242    2.6106    1.0801 H   0  0  0  0  0  0  0  0  0  0  0  0
   -0.9154    1.9996    0.2709 H   0  0  0  0  0  0  0  0  0  0  0  0
    0.4780   -2.3480    1.0410 H   0  0  0  0  0  0  0  0  0  0  0  0
    0.1189   -1.6189    2.6422 H   0  0  0  0  0  0  0  0  0  0  0  0
   -1.7719   -3.1535    0.7757 H   0  0  0  0  0  0  0  0  0  0  0  0
   -1.5282   -3.3768    2.5352 H   0  0  0  0  0  0  0  0  0  0  0  0
   -3.3945   -4.1164    1.0998 H   0  0  0  0  0  0  0  0  0  0  0  0
   -4.0383   -6.4225    1.6503 H   0  0  0  0  0  0  0  0  0  0  0  0
   -5.2066   -6.9173    3.7554 H   0  0  0  0  0  0  0  0  0  0  0  0
   -5.7422   -5.1118    5.3336 H   0  0  0  0  0  0  0  0  0  0  0  0
   -3.1519   -1.8187    5.2483 H   0  0  0  0  0  0  0  0  0  0  0  0
   -3.6956   -0.0097    6.8242 H   0  0  0  0  0  0  0  0  0  0  0  0
   -7.8189   -1.0940    6.6736 H   0  0  0  0  0  0  0  0  0  0  0  0
   -7.2954   -2.9043    5.0923 H   0  0  0  0  0  0  0  0  0  0  0  0
   -2.1430    0.3696    2.3435 H   0  0  0  0  0  0  0  0  0  0  0  0
   -2.8415    0.0262    0.7363 H   0  0  0  0  0  0  0  0  0  0  0  0
  1  2  1  0
  1 28  1  0
  1 29  1  0
  2  3  2  0
  2  4  1  0
  4  5  1  6
  4 27  1  0
  4  6  1  0
  6  7  1  0
  6 30  1  6
  6 31  1  0
  7  8  1  0
  7 32  1  6
  7 33  1  0
  8  9  1  0
  8 27  1  0
  9 10  2  0
  9 11  1  0
 11 16  2  0
 11 12  1  0
 12 13  2  0
 12 34  1  0
 13 14  1  0
 13 35  1  0
 14 15  2  0
 14 36  1  0
 15 16  1  0
 15 37  1  0
 16 17  1  0
 17 26  2  0
 17 18  1  0
 18 19  2  0
 18 38  1  0
 19 20  1  0
 19 39  1  0
 20 21  1  0
 20 25  2  0
 21 22  1  6
 21 23  1  0
 21 24  1  0
 25 26  1  0
 25 40  1  0
 26 41  1  0
 27 42  1  1
 27 43  1  0
M  END
$$$$
