ZINC000079057823
     RDKit          3D

 57 58  0  0  1  0  0  0  0  0999 V2000
   -0.0187    1.5258    0.0104 C   0  0  1  0  0  0  0  0  0  0  0  0
    0.0021   -0.0041    0.0020 C   0  0  1  0  0  0  0  0  0  0  0  0
    0.7106   -0.4894    1.1889 N   0  0  0  0  0  0  0  0  0  0  0  0
   -0.0062   -0.6460    2.4569 C   0  0  1  0  0  0  0  0  0  0  0  0
   -0.6935   -2.0126    2.4888 C   0  0  1  0  0  0  0  0  0  0  0  0
    2.3218   -0.8609    1.0971 S   0  0  1  0  0  0  0  0  0  0  0  0
    2.5823   -1.7795    2.1496 O   0  0  0  0  0  0  0  0  0  0  0  0
    2.5905   -1.1471   -0.2686 O   0  0  0  0  0  0  0  0  0  0  0  0
    3.2182    0.6060    1.4837 C   0  0  0  0  0  0  0  0  0  0  0  0
    3.9087    0.6916    2.6446 C   0  0  0  0  0  0  0  0  0  0  0  0
    4.6036    1.8154    2.9566 N   0  0  0  0  0  0  0  0  0  0  0  0
    5.3429    1.8826    4.2196 C   0  0  1  0  0  0  0  0  0  0  0  0
    6.7456    1.3738    4.0083 C   0  0  0  0  0  0  0  0  0  0  0  0
    7.0935    0.9926    2.9108 O   0  0  0  0  0  0  0  0  0  0  0  0
    7.6134    1.3424    5.0390 N   0  0  0  0  0  0  0  0  0  0  0  0
    8.9770    0.8478    4.8336 C   0  0  2  0  0  0  0  0  0  0  0  0
    9.3196    1.1296    3.8380 H   0  0  0  0  0  0  0  0  0  0  0  0
    8.9920   -0.6765    4.9656 C   0  0  1  0  0  0  0  0  0  0  0  0
    9.9053    1.4598    5.8846 C   0  0  1  0  0  0  0  0  0  0  0  0
    9.5265    0.9965    7.1823 O   0  0  0  0  0  0  0  0  0  0  0  0
   10.3349    1.5116    8.2422 C   0  0  2  0  0  0  0  0  0  0  0  0
   11.3436    1.7193    7.8851 H   0  0  0  0  0  0  0  0  0  0  0  0
   10.3737    0.5160    9.4270 C   0  0  1  0  0  0  0  0  0  0  0  0
   10.2774    1.4630   10.6502 C   0  0  1  0  0  0  0  0  0  0  0  0
    9.3697    2.4945   10.2069 O   0  0  0  0  0  0  0  0  0  0  0  0
    9.6999    2.7844    8.8351 C   0  0  1  0  0  0  0  0  0  0  0  0
    4.6215    2.8689    2.1180 C   0  0  0  0  0  0  0  0  0  0  0  0
    5.2513    3.8722    2.4123 O   0  0  0  0  0  0  0  0  0  0  0  0
    3.9157    2.8134    0.9040 C   0  0  0  0  0  0  0  0  0  0  0  0
    3.2213    1.6832    0.5864 C   0  0  0  0  0  0  0  0  0  0  0  0
    1.0039    1.9031    0.0027 H   0  0  0  0  0  0  0  0  0  0  0  0
   -0.5459    1.8868   -0.8726 H   0  0  0  0  0  0  0  0  0  0  0  0
   -0.5289    1.8773    0.9072 H   0  0  0  0  0  0  0  0  0  0  0  0
   -1.0205   -0.3814    0.0098 H   0  0  0  0  0  0  0  0  0  0  0  0
    0.5123   -0.3556   -0.8948 H   0  0  0  0  0  0  0  0  0  0  0  0
    0.6997   -0.5749    3.2845 H   0  0  0  0  0  0  0  0  0  0  0  0
   -0.7557    0.1399    2.5501 H   0  0  0  0  0  0  0  0  0  0  0  0
   -1.3993   -2.0837    1.6613 H   0  0  0  0  0  0  0  0  0  0  0  0
    0.0560   -2.7985    2.3957 H   0  0  0  0  0  0  0  0  0  0  0  0
   -1.2268   -2.1291    3.4323 H   0  0  0  0  0  0  0  0  0  0  0  0
    3.9066   -0.1428    3.3303 H   0  0  0  0  0  0  0  0  0  0  0  0
    5.3793    2.9158    4.5648 H   0  0  0  0  0  0  0  0  0  0  0  0
    4.8419    1.2673    4.9669 H   0  0  0  0  0  0  0  0  0  0  0  0
    7.3351    1.6472    5.9168 H   0  0  0  0  0  0  0  0  0  0  0  0
    8.6494   -0.9583    5.9612 H   0  0  0  0  0  0  0  0  0  0  0  0
    8.3307   -1.1125    4.2168 H   0  0  0  0  0  0  0  0  0  0  0  0
   10.0065   -1.0445    4.8128 H   0  0  0  0  0  0  0  0  0  0  0  0
   10.9335    1.1626    5.6785 H   0  0  0  0  0  0  0  0  0  0  0  0
    9.8272    2.5465    5.8497 H   0  0  0  0  0  0  0  0  0  0  0  0
    9.5217   -0.1630    9.3926 H   0  0  0  0  0  0  0  0  0  0  0  0
   11.3117   -0.0393    9.4379 H   0  0  0  0  0  0  0  0  0  0  0  0
    9.8682    0.9361   11.5122 H   0  0  0  0  0  0  0  0  0  0  0  0
   11.2539    1.8863   10.8858 H   0  0  0  0  0  0  0  0  0  0  0  0
   10.4091    3.6110    8.7913 H   0  0  0  0  0  0  0  0  0  0  0  0
    8.7958    3.0395    8.2821 H   0  0  0  0  0  0  0  0  0  0  0  0
    3.9262    3.6555    0.2278 H   0  0  0  0  0  0  0  0  0  0  0  0
    2.6733    1.6219   -0.3422 H   0  0  0  0  0  0  0  0  0  0  0  0
  1  2  1  0
  1 31  1  6
  1 32  1  0
  1 33  1  0
  2  3  1  0
  2 34  1  1
  2 35  1  0
  3  4  1  0
  6  3  1  6
  4  5  1  0
  4 36  1  1
  4 37  1  0
  5 38  1  6
  5 39  1  0
  5 40  1  0
  6  7  2  0
  6  8  2  0
  6  9  1  0
  9 30  1  0
  9 10  2  0
 10 11  1  0
 10 41  1  0
 11 12  1  0
 11 27  1  0
 12 13  1  0
 12 42  1  1
 12 43  1  0
 13 14  2  0
 13 15  1  0
 15 16  1  0
 15 44  1  0
 16 17  1  6
 16 18  1  0
 16 19  1  0
 18 45  1  1
 18 46  1  0
 18 47  1  0
 19 20  1  0
 19 48  1  6
 19 49  1  0
 20 21  1  0
 21 22  1  6
 21 26  1  0
 21 23  1  0
 23 24  1  0
 23 50  1  6
 23 51  1  0
 24 25  1  0
 24 52  1  1
 24 53  1  0
 25 26  1  0
 26 54  1  1
 26 55  1  0
 27 28  2  0
 27 29  1  0
 29 30  2  0
 29 56  1  0
 30 57  1  0
M  END
$$$$
