ZINC000004255672
     RDKit          3D

 22 22  0  0  0  0  0  0  0  0999 V2000
   -1.3907    0.7163   -2.8542 O   0  0  0  0  0  0  0  0  0  0  0  0
   -0.9104    1.5229   -2.0781 N   0  0  0  0  0  0  0  0  0  0  0  0
    0.2505    1.8700   -2.2014 O   0  0  0  0  0  0  0  0  0  0  0  0
   -1.7395    2.0859   -0.9887 C   0  0  0  0  0  0  0  0  0  0  0  0
   -2.5432    1.2543   -0.2315 C   0  0  0  0  0  0  0  0  0  0  0  0
   -3.3174    1.7801    0.7859 C   0  0  0  0  0  0  0  0  0  0  0  0
   -4.1940    0.8736    1.6111 C   0  0  1  0  0  0  0  0  0  0  0  0
   -3.4738    0.4082    2.7165 F   0  0  0  0  0  0  0  0  0  0  0  0
   -5.3161    1.5839    2.0510 F   0  0  0  0  0  0  0  0  0  0  0  0
   -4.6058   -0.2129    0.8318 F   0  0  0  0  0  0  0  0  0  0  0  0
   -3.2872    3.1373    1.0466 C   0  0  0  0  0  0  0  0  0  0  0  0
   -2.4832    3.9688    0.2896 C   0  0  0  0  0  0  0  0  0  0  0  0
   -2.4513    5.4221    0.5684 N   0  0  0  0  0  0  0  0  0  0  0  0
   -3.4857    6.0194    0.8068 O   0  0  0  0  0  0  0  0  0  0  0  0
   -1.3906    6.0208    0.5595 O   0  0  0  0  0  0  0  0  0  0  0  0
   -1.7057    3.4424   -0.7249 C   0  0  0  0  0  0  0  0  0  0  0  0
   -0.6808    4.5023   -1.6898 S   0  0  1  0  0  0  0  0  0  0  0  0
    0.5969    4.5918   -1.0002 O   0  0  0  0  0  0  0  0  0  0  0  0
   -0.5520    3.8827   -2.9996 O   0  0  0  0  0  0  0  0  0  0  0  0
   -1.3554    5.7892   -1.7586 O   0  0  0  0  0  0  0  0  0  0  0  0
   -2.5665    0.1939   -0.4349 H   0  0  0  0  0  0  0  0  0  0  0  0
   -3.8921    3.5480    1.8414 H   0  0  0  0  0  0  0  0  0  0  0  0
  1  2  2  0
  2  3  2  0
  2  4  1  0
  4 16  2  0
  4  5  1  0
  5  6  2  0
  5 21  1  0
  6  7  1  0
  6 11  1  0
  7  8  1  1
  7  9  1  0
  7 10  1  0
 11 12  2  0
 11 22  1  0
 12 13  1  0
 12 16  1  0
 13 14  2  0
 13 15  2  0
 16 17  1  0
 17 18  1  1
 17 19  1  0
 17 20  1  0
M  END
$$$$
