ZINC000005060802
     RDKit          3D

 51 52  0  0  1  0  0  0  0  0999 V2000
   -0.0187    1.5258    0.0104 C   0  0  1  0  0  0  0  0  0  0  0  0
    0.0021   -0.0041    0.0020 C   0  0  1  0  0  0  0  0  0  0  0  0
   -1.3386   -0.4987    0.0122 O   0  0  0  0  0  0  0  0  0  0  0  0
   -1.4983   -1.8483    0.0064 C   0  0  0  0  0  0  0  0  0  0  0  0
   -0.3876   -2.6794   -0.0028 C   0  0  0  0  0  0  0  0  0  0  0  0
   -0.5526   -4.0509   -0.0082 C   0  0  0  0  0  0  0  0  0  0  0  0
   -1.8235   -4.5955   -0.0047 C   0  0  0  0  0  0  0  0  0  0  0  0
   -2.0307   -6.3453   -0.0121 S   0  0  1  0  0  0  0  0  0  0  0  0
   -3.3215   -6.5942   -0.5516 O   0  0  0  0  0  0  0  0  0  0  0  0
   -0.8394   -6.8880   -0.5648 O   0  0  0  0  0  0  0  0  0  0  0  0
   -2.0808   -6.8396    1.5676 N   0  0  0  0  0  0  0  0  0  0  0  0
   -3.3628   -6.9092    2.2731 C   0  0  1  0  0  0  0  0  0  0  0  0
   -3.9134   -8.3343    2.1911 C   0  0  1  0  0  0  0  0  0  0  0  0
   -0.8430   -7.2074    2.2596 C   0  0  1  0  0  0  0  0  0  0  0  0
   -0.3224   -6.0177    3.0242 C   0  0  0  0  0  0  0  0  0  0  0  0
   -0.9258   -4.9661    2.9940 O   0  0  0  0  0  0  0  0  0  0  0  0
    0.8138   -6.1223    3.7415 N   0  0  0  0  0  0  0  0  0  0  0  0
    1.3199   -4.9657    4.4848 C   0  0  1  0  0  0  0  0  0  0  0  0
    2.6126   -5.3498    5.2075 C   0  0  2  0  0  0  0  0  0  0  0  0
    2.4425   -6.2312    5.8258 H   0  0  0  0  0  0  0  0  0  0  0  0
    3.0884   -4.1754    6.0894 C   0  0  1  0  0  0  0  0  0  0  0  0
    4.6284   -4.2186    5.8931 C   0  0  1  0  0  0  0  0  0  0  0  0
    4.7240   -4.6859    4.4189 C   0  0  1  0  0  0  0  0  0  0  0  0
    3.6430   -5.6195    4.2498 O   0  0  0  0  0  0  0  0  0  0  0  0
   -2.9322   -3.7693    0.0050 C   0  0  0  0  0  0  0  0  0  0  0  0
   -2.7724   -2.3972    0.0157 C   0  0  0  0  0  0  0  0  0  0  0  0
    1.0039    1.9031    0.0027 H   0  0  0  0  0  0  0  0  0  0  0  0
   -0.5459    1.8868   -0.8726 H   0  0  0  0  0  0  0  0  0  0  0  0
   -0.5289    1.8773    0.9072 H   0  0  0  0  0  0  0  0  0  0  0  0
    0.5123   -0.3556   -0.8948 H   0  0  0  0  0  0  0  0  0  0  0  0
    0.5293   -0.3651    0.8851 H   0  0  0  0  0  0  0  0  0  0  0  0
    0.6053   -2.2545   -0.0062 H   0  0  0  0  0  0  0  0  0  0  0  0
    0.3118   -4.6984   -0.0154 H   0  0  0  0  0  0  0  0  0  0  0  0
   -3.2179   -6.6352    3.3181 H   0  0  0  0  0  0  0  0  0  0  0  0
   -4.0695   -6.2195    1.8114 H   0  0  0  0  0  0  0  0  0  0  0  0
   -4.0584   -8.6082    1.1460 H   0  0  0  0  0  0  0  0  0  0  0  0
   -3.2068   -9.0239    2.6528 H   0  0  0  0  0  0  0  0  0  0  0  0
   -4.8673   -8.3861    2.7159 H   0  0  0  0  0  0  0  0  0  0  0  0
   -1.0431   -8.0251    2.9521 H   0  0  0  0  0  0  0  0  0  0  0  0
   -0.0986   -7.5239    1.5291 H   0  0  0  0  0  0  0  0  0  0  0  0
    1.2965   -6.9633    3.7657 H   0  0  0  0  0  0  0  0  0  0  0  0
    1.5200   -4.1480    3.7923 H   0  0  0  0  0  0  0  0  0  0  0  0
    0.5755   -4.6492    5.2153 H   0  0  0  0  0  0  0  0  0  0  0  0
    2.6782   -3.2309    5.7320 H   0  0  0  0  0  0  0  0  0  0  0  0
    2.8256   -4.3432    7.1338 H   0  0  0  0  0  0  0  0  0  0  0  0
    5.0687   -3.2298    6.0211 H   0  0  0  0  0  0  0  0  0  0  0  0
    5.0899   -4.9421    6.5653 H   0  0  0  0  0  0  0  0  0  0  0  0
    4.6017   -3.8382    3.7447 H   0  0  0  0  0  0  0  0  0  0  0  0
    5.6797   -5.1783    4.2393 H   0  0  0  0  0  0  0  0  0  0  0  0
   -3.9238   -4.1971    0.0080 H   0  0  0  0  0  0  0  0  0  0  0  0
   -3.6387   -1.7522    0.0232 H   0  0  0  0  0  0  0  0  0  0  0  0
  1  2  1  0
  1 27  1  6
  1 28  1  0
  1 29  1  0
  2  3  1  0
  2 30  1  6
  2 31  1  0
  3  4  1  0
  4 26  2  0
  4  5  1  0
  5  6  2  0
  5 32  1  0
  6  7  1  0
  6 33  1  0
  7  8  1  0
  7 25  2  0
  8  9  2  0
  8 10  2  0
  8 11  1  1
 11 12  1  0
 11 14  1  0
 12 13  1  0
 12 34  1  1
 12 35  1  0
 13 36  1  6
 13 37  1  0
 13 38  1  0
 14 15  1  0
 14 39  1  1
 14 40  1  0
 15 16  2  0
 15 17  1  0
 17 18  1  0
 17 41  1  0
 18 19  1  0
 18 42  1  6
 18 43  1  0
 19 20  1  1
 19 24  1  0
 19 21  1  0
 21 22  1  0
 21 44  1  6
 21 45  1  0
 22 23  1  0
 22 46  1  6
 22 47  1  0
 23 24  1  0
 23 48  1  6
 23 49  1  0
 25 26  1  0
 25 50  1  0
 26 51  1  0
M  END
$$$$
