ZINC000010753586
     RDKit          3D

 40 41  0  0  1  0  0  0  0  0999 V2000
   -0.0178    1.4608    0.0101 C   0  0  1  0  0  0  0  0  0  0  0  0
    0.0021   -0.0041    0.0020 N   0  0  0  0  0  0  0  0  0  0  0  0
    0.0241   -0.7433    1.2666 C   0  0  1  0  0  0  0  0  0  0  0  0
    0.0001   -0.6716   -1.1688 C   0  0  0  0  0  0  0  0  0  0  0  0
   -0.0182   -0.0596   -2.2157 O   0  0  0  0  0  0  0  0  0  0  0  0
    0.0205   -2.1784   -1.1771 C   0  0  2  0  0  0  0  0  0  0  0  0
   -0.8508   -2.5638   -0.6475 H   0  0  0  0  0  0  0  0  0  0  0  0
    1.3120   -2.6895   -0.5045 C   0  0  1  0  0  0  0  0  0  0  0  0
    1.6982   -3.9124   -1.3779 C   0  0  1  0  0  0  0  0  0  0  0  0
    1.2646   -3.4374   -2.7872 C   0  0  1  0  0  0  0  0  0  0  0  0
    0.0217   -2.6709   -2.5624 N   0  0  0  0  0  0  0  0  0  0  0  0
   -1.1676   -2.4098   -3.6848 S   0  0  1  0  0  0  0  0  0  0  0  0
   -1.8545   -1.2351   -3.2758 O   0  0  0  0  0  0  0  0  0  0  0  0
   -0.5538   -2.5473   -4.9591 O   0  0  0  0  0  0  0  0  0  0  0  0
   -2.3197   -3.7352   -3.5419 C   0  0  0  0  0  0  0  0  0  0  0  0
   -2.1455   -4.8859   -4.2879 C   0  0  0  0  0  0  0  0  0  0  0  0
   -3.0494   -5.9258   -4.1757 C   0  0  0  0  0  0  0  0  0  0  0  0
   -4.1273   -5.8151   -3.3173 C   0  0  0  0  0  0  0  0  0  0  0  0
   -5.1129   -6.9485   -3.1954 C   0  0  1  0  0  0  0  0  0  0  0  0
   -4.6967   -7.8218   -2.1848 F   0  0  0  0  0  0  0  0  0  0  0  0
   -6.3756   -6.4364   -2.8784 F   0  0  0  0  0  0  0  0  0  0  0  0
   -5.1815   -7.6395   -4.4099 F   0  0  0  0  0  0  0  0  0  0  0  0
   -4.3007   -4.6650   -2.5703 C   0  0  0  0  0  0  0  0  0  0  0  0
   -3.3947   -3.6267   -2.6796 C   0  0  0  0  0  0  0  0  0  0  0  0
    1.0048    1.8381    0.0023 H   0  0  0  0  0  0  0  0  0  0  0  0
   -0.5450    1.8219   -0.8730 H   0  0  0  0  0  0  0  0  0  0  0  0
   -0.5280    1.8123    0.9069 H   0  0  0  0  0  0  0  0  0  0  0  0
    0.0224   -0.0395    2.0990 H   0  0  0  0  0  0  0  0  0  0  0  0
   -0.8567   -1.3823    1.3294 H   0  0  0  0  0  0  0  0  0  0  0  0
    0.9230   -1.3581    1.3125 H   0  0  0  0  0  0  0  0  0  0  0  0
    2.0920   -1.9289   -0.5394 H   0  0  0  0  0  0  0  0  0  0  0  0
    1.1164   -2.9959    0.5231 H   0  0  0  0  0  0  0  0  0  0  0  0
    2.7720   -4.0956   -1.3406 H   0  0  0  0  0  0  0  0  0  0  0  0
    1.1413   -4.7995   -1.0761 H   0  0  0  0  0  0  0  0  0  0  0  0
    2.0317   -2.7986   -3.2249 H   0  0  0  0  0  0  0  0  0  0  0  0
    1.0691   -4.2937   -3.4327 H   0  0  0  0  0  0  0  0  0  0  0  0
   -1.3035   -4.9724   -4.9586 H   0  0  0  0  0  0  0  0  0  0  0  0
   -2.9137   -6.8245   -4.7591 H   0  0  0  0  0  0  0  0  0  0  0  0
   -5.1426   -4.5787   -1.8993 H   0  0  0  0  0  0  0  0  0  0  0  0
   -3.5301   -2.7281   -2.0960 H   0  0  0  0  0  0  0  0  0  0  0  0
  1  2  1  0
  1 25  1  6
  1 26  1  0
  1 27  1  0
  2  3  1  0
  2  4  1  0
  3 28  1  1
  3 29  1  0
  3 30  1  0
  4  5  2  0
  4  6  1  0
  6  7  1  1
  6 11  1  0
  6  8  1  0
  8  9  1  0
  8 31  1  1
  8 32  1  0
  9 10  1  0
  9 33  1  6
  9 34  1  0
 10 11  1  0
 10 35  1  6
 10 36  1  0
 12 11  1  1
 12 13  2  0
 12 14  2  0
 12 15  1  0
 15 24  2  0
 15 16  1  0
 16 17  2  0
 16 37  1  0
 17 18  1  0
 17 38  1  0
 18 19  1  0
 18 23  2  0
 19 20  1  1
 19 21  1  0
 19 22  1  0
 23 24  1  0
 23 39  1  0
 24 40  1  0
M  END
$$$$
