ZINC000025740383
     RDKit          3D

 52 54  0  0  0  0  0  0  0  0999 V2000
    1.2008    2.8479    0.3510 C   0  0  1  0  0  0  0  0  0  0  0  0
    0.9196    1.4115    0.4142 N   0  0  0  0  0  0  0  0  0  0  0  0
    0.9057    0.7241    1.7079 C   0  0  1  0  0  0  0  0  0  0  0  0
    0.6176    0.5649   -0.9766 S   0  0  1  0  0  0  0  0  0  0  0  0
   -0.1325   -0.5800   -0.5945 O   0  0  0  0  0  0  0  0  0  0  0  0
    0.1582    1.5120   -1.9311 O   0  0  0  0  0  0  0  0  0  0  0  0
    2.0725    0.0055   -1.5357 N   0  0  0  0  0  0  0  0  0  0  0  0
    2.8796    0.8143   -2.4599 C   0  0  1  0  0  0  0  0  0  0  0  0
    4.2778    0.9986   -1.8569 C   0  0  1  0  0  0  0  0  0  0  0  0
    4.7852   -0.3153   -1.4374 N   0  0  0  0  0  0  0  0  0  0  0  0
    5.9697   -0.7702   -1.8917 C   0  0  0  0  0  0  0  0  0  0  0  0
    6.5838   -0.1367   -2.7282 O   0  0  0  0  0  0  0  0  0  0  0  0
    6.5215   -2.0377   -1.3737 C   0  0  0  0  0  0  0  0  0  0  0  0
    6.6121   -2.2538    0.0012 C   0  0  0  0  0  0  0  0  0  0  0  0
    7.1287   -3.4403    0.4798 C   0  0  0  0  0  0  0  0  0  0  0  0
    7.5598   -4.4214   -0.3972 C   0  0  0  0  0  0  0  0  0  0  0  0
    7.4777   -4.2250   -1.7614 C   0  0  0  0  0  0  0  0  0  0  0  0
    6.9539   -3.0376   -2.2636 C   0  0  0  0  0  0  0  0  0  0  0  0
    6.8639   -2.8225   -3.7271 C   0  0  0  0  0  0  0  0  0  0  0  0
    5.6405   -2.5003   -4.3133 C   0  0  0  0  0  0  0  0  0  0  0  0
    5.5630   -2.3013   -5.6766 C   0  0  0  0  0  0  0  0  0  0  0  0
    6.6959   -2.4209   -6.4614 C   0  0  0  0  0  0  0  0  0  0  0  0
    6.6044   -2.2023   -7.9497 C   0  0  1  0  0  0  0  0  0  0  0  0
    6.8312   -0.8522   -8.2375 F   0  0  0  0  0  0  0  0  0  0  0  0
    7.5671   -2.9850   -8.5960 F   0  0  0  0  0  0  0  0  0  0  0  0
    5.3300   -2.5668   -8.3971 F   0  0  0  0  0  0  0  0  0  0  0  0
    7.9125   -2.7400   -5.8855 C   0  0  0  0  0  0  0  0  0  0  0  0
    8.0035   -2.9361   -4.5226 C   0  0  0  0  0  0  0  0  0  0  0  0
    3.9780   -1.1242   -0.5132 C   0  0  1  0  0  0  0  0  0  0  0  0
    2.5825   -1.3060   -1.1117 C   0  0  1  0  0  0  0  0  0  0  0  0
    2.2739    3.0035    0.2395 H   0  0  0  0  0  0  0  0  0  0  0  0
    0.6800    3.2828   -0.5021 H   0  0  0  0  0  0  0  0  0  0  0  0
    0.8577    3.3260    1.2685 H   0  0  0  0  0  0  0  0  0  0  0  0
   -0.1011    0.7542    2.1245 H   0  0  0  0  0  0  0  0  0  0  0  0
    1.2115   -0.3132    1.5715 H   0  0  0  0  0  0  0  0  0  0  0  0
    1.5962    1.2198    2.3902 H   0  0  0  0  0  0  0  0  0  0  0  0
    2.9595    0.3031   -3.4193 H   0  0  0  0  0  0  0  0  0  0  0  0
    2.4102    1.7880   -2.5995 H   0  0  0  0  0  0  0  0  0  0  0  0
    4.9452    1.4267   -2.6048 H   0  0  0  0  0  0  0  0  0  0  0  0
    4.2192    1.6609   -0.9932 H   0  0  0  0  0  0  0  0  0  0  0  0
    6.2784   -1.4926    0.6909 H   0  0  0  0  0  0  0  0  0  0  0  0
    7.1975   -3.6047    1.5450 H   0  0  0  0  0  0  0  0  0  0  0  0
    7.9631   -5.3461   -0.0115 H   0  0  0  0  0  0  0  0  0  0  0  0
    7.8160   -4.9950   -2.4390 H   0  0  0  0  0  0  0  0  0  0  0  0
    4.7553   -2.4070   -3.7016 H   0  0  0  0  0  0  0  0  0  0  0  0
    4.6159   -2.0520   -6.1318 H   0  0  0  0  0  0  0  0  0  0  0  0
    8.7936   -2.8320   -6.5032 H   0  0  0  0  0  0  0  0  0  0  0  0
    8.9539   -3.1848   -4.0739 H   0  0  0  0  0  0  0  0  0  0  0  0
    4.4475   -2.0979   -0.3736 H   0  0  0  0  0  0  0  0  0  0  0  0
    3.8982   -0.6129    0.4462 H   0  0  0  0  0  0  0  0  0  0  0  0
    1.9162   -1.7342   -0.3629 H   0  0  0  0  0  0  0  0  0  0  0  0
    2.6386   -1.9676   -1.9762 H   0  0  0  0  0  0  0  0  0  0  0  0
  1  2  1  0
  1 31  1  6
  1 32  1  0
  1 33  1  0
  2  3  1  0
  4  2  1  1
  3 34  1  1
  3 35  1  0
  3 36  1  0
  4  5  2  0
  4  6  2  0
  4  7  1  0
  7 30  1  0
  7  8  1  0
  8  9  1  0
  8 37  1  6
  8 38  1  0
  9 10  1  0
  9 39  1  6
  9 40  1  0
 10 11  1  0
 10 29  1  0
 11 12  2  0
 11 13  1  0
 13 18  2  0
 13 14  1  0
 14 15  2  0
 14 41  1  0
 15 16  1  0
 15 42  1  0
 16 17  2  0
 16 43  1  0
 17 18  1  0
 17 44  1  0
 18 19  1  0
 19 28  2  0
 19 20  1  0
 20 21  2  0
 20 45  1  0
 21 22  1  0
 21 46  1  0
 22 23  1  0
 22 27  2  0
 23 24  1  1
 23 25  1  0
 23 26  1  0
 27 28  1  0
 27 47  1  0
 28 48  1  0
 29 30  1  0
 29 49  1  1
 29 50  1  0
 30 51  1  1
 30 52  1  0
M  END
$$$$
