ZINC000408621690
     RDKit          3D

 56 57  0  0  1  0  0  0  0  0999 V2000
   -3.7220  -12.3622   -5.0470 C   0  0  1  0  0  0  0  0  0  0  0  0
   -3.8018  -11.1462   -4.1219 C   0  0  1  0  0  0  0  0  0  0  0  0
   -2.4982  -10.8413   -3.6223 O   0  0  0  0  0  0  0  0  0  0  0  0
   -2.3930   -9.7803   -2.7797 C   0  0  0  0  0  0  0  0  0  0  0  0
   -3.5221   -9.0511   -2.4362 C   0  0  0  0  0  0  0  0  0  0  0  0
   -3.4126   -7.9733   -1.5791 C   0  0  0  0  0  0  0  0  0  0  0  0
   -2.1788   -7.6207   -1.0641 C   0  0  0  0  0  0  0  0  0  0  0  0
   -2.0424   -6.2450    0.0284 S   0  0  1  0  0  0  0  0  0  0  0  0
   -0.7022   -5.7835   -0.0730 O   0  0  0  0  0  0  0  0  0  0  0  0
   -3.1703   -5.4184   -0.2244 O   0  0  0  0  0  0  0  0  0  0  0  0
   -2.2225   -6.8233    1.5697 N   0  0  0  0  0  0  0  0  0  0  0  0
   -3.5633   -7.0221    2.1254 C   0  0  1  0  0  0  0  0  0  0  0  0
   -3.9832   -8.4553    1.9237 C   0  0  0  0  0  0  0  0  0  0  0  0
   -3.2360   -9.2340    1.3702 O   0  0  0  0  0  0  0  0  0  0  0  0
   -5.1890   -8.8718    2.3583 N   0  0  0  0  0  0  0  0  0  0  0  0
   -5.5972  -10.2651    2.1622 C   0  0  1  0  0  0  0  0  0  0  0  0
   -5.2011  -10.6298    1.2145 H   0  0  0  0  0  0  0  0  0  0  0  0
   -5.0521  -11.1221    3.3065 C   0  0  1  0  0  0  0  0  0  0  0  0
   -7.1247  -10.3512    2.1435 C   0  0  1  0  0  0  0  0  0  0  0  0
   -7.6631   -9.5966    0.9263 C   0  0  1  0  0  0  0  0  0  0  0  0
   -1.0410   -7.1360    2.3774 C   0  0  1  0  0  0  0  0  0  0  0  0
   -0.7100   -5.9599    3.2597 C   0  0  0  0  0  0  0  0  0  0  0  0
    0.2267   -5.0299    2.8491 C   0  0  0  0  0  0  0  0  0  0  0  0
    0.5303   -3.9510    3.6583 C   0  0  0  0  0  0  0  0  0  0  0  0
   -0.1031   -3.8020    4.8779 C   0  0  0  0  0  0  0  0  0  0  0  0
   -1.0405   -4.7315    5.2881 C   0  0  0  0  0  0  0  0  0  0  0  0
   -1.3472   -5.8080    4.4769 C   0  0  0  0  0  0  0  0  0  0  0  0
   -1.0520   -8.3460   -1.4046 C   0  0  0  0  0  0  0  0  0  0  0  0
   -1.1571   -9.4279   -2.2571 C   0  0  0  0  0  0  0  0  0  0  0  0
   -4.7163  -12.5948   -5.4281 H   0  0  0  0  0  0  0  0  0  0  0  0
   -3.0558  -12.1412   -5.8810 H   0  0  0  0  0  0  0  0  0  0  0  0
   -3.3368  -13.2170   -4.4911 H   0  0  0  0  0  0  0  0  0  0  0  0
   -4.1870  -10.2914   -4.6778 H   0  0  0  0  0  0  0  0  0  0  0  0
   -4.4680  -11.3673   -3.2879 H   0  0  0  0  0  0  0  0  0  0  0  0
   -4.4859   -9.3258   -2.8388 H   0  0  0  0  0  0  0  0  0  0  0  0
   -4.2913   -7.4054   -1.3114 H   0  0  0  0  0  0  0  0  0  0  0  0
   -3.5526   -6.7932    3.1910 H   0  0  0  0  0  0  0  0  0  0  0  0
   -4.2680   -6.3624    1.6191 H   0  0  0  0  0  0  0  0  0  0  0  0
   -5.7867   -8.2491    2.8010 H   0  0  0  0  0  0  0  0  0  0  0  0
   -5.4482  -10.7574    4.2542 H   0  0  0  0  0  0  0  0  0  0  0  0
   -5.3558  -12.1587    3.1606 H   0  0  0  0  0  0  0  0  0  0  0  0
   -3.9639  -11.0607    3.3199 H   0  0  0  0  0  0  0  0  0  0  0  0
   -7.4290  -11.3964    2.0868 H   0  0  0  0  0  0  0  0  0  0  0  0
   -7.5249   -9.9051    3.0539 H   0  0  0  0  0  0  0  0  0  0  0  0
   -8.7513   -9.6580    0.9130 H   0  0  0  0  0  0  0  0  0  0  0  0
   -7.3588   -8.5515    0.9830 H   0  0  0  0  0  0  0  0  0  0  0  0
   -7.2628  -10.0427    0.0159 H   0  0  0  0  0  0  0  0  0  0  0  0
   -1.2453   -8.0090    2.9973 H   0  0  0  0  0  0  0  0  0  0  0  0
   -0.1970   -7.3463    1.7205 H   0  0  0  0  0  0  0  0  0  0  0  0
    0.7216   -5.1463    1.8962 H   0  0  0  0  0  0  0  0  0  0  0  0
    1.2627   -3.2248    3.3378 H   0  0  0  0  0  0  0  0  0  0  0  0
    0.1346   -2.9595    5.5105 H   0  0  0  0  0  0  0  0  0  0  0  0
   -1.5351   -4.6152    6.2411 H   0  0  0  0  0  0  0  0  0  0  0  0
   -2.0796   -6.5342    4.7974 H   0  0  0  0  0  0  0  0  0  0  0  0
   -0.0895   -8.0688   -1.0007 H   0  0  0  0  0  0  0  0  0  0  0  0
   -0.2766   -9.9942   -2.5227 H   0  0  0  0  0  0  0  0  0  0  0  0
  1  2  1  0
  1 30  1  6
  1 31  1  0
  1 32  1  0
  2  3  1  0
  2 33  1  6
  2 34  1  0
  3  4  1  0
  4 29  2  0
  4  5  1  0
  5  6  2  0
  5 35  1  0
  6  7  1  0
  6 36  1  0
  7  8  1  0
  7 28  2  0
  8  9  2  0
  8 10  2  0
  8 11  1  1
 11 12  1  0
 11 21  1  0
 12 13  1  0
 12 37  1  1
 12 38  1  0
 13 14  2  0
 13 15  1  0
 15 16  1  0
 15 39  1  0
 16 17  1  6
 16 18  1  0
 16 19  1  0
 18 40  1  1
 18 41  1  0
 18 42  1  0
 19 20  1  0
 19 43  1  6
 19 44  1  0
 20 45  1  6
 20 46  1  0
 20 47  1  0
 21 22  1  0
 21 48  1  1
 21 49  1  0
 22 27  2  0
 22 23  1  0
 23 24  2  0
 23 50  1  0
 24 25  1  0
 24 51  1  0
 25 26  2  0
 25 52  1  0
 26 27  1  0
 26 53  1  0
 27 54  1  0
 28 29  1  0
 28 55  1  0
 29 56  1  0
M  END
$$$$
