ZINC000016090462
     RDKit          3D

 37 38  0  0  0  0  0  0  0  0999 V2000
   -0.0184    1.5028    0.0103 C   0  0  1  0  0  0  0  0  0  0  0  0
    0.0021   -0.0041    0.0020 C   0  0  0  0  0  0  0  0  0  0  0  0
    1.0605   -0.5961   -0.0113 O   0  0  0  0  0  0  0  0  0  0  0  0
   -1.1558   -0.6938    0.0094 N   0  0  0  0  0  0  0  0  0  0  0  0
   -2.4458    0.0103    0.0193 C   0  0  1  0  0  0  0  0  0  0  0  0
   -3.2812   -0.4806   -1.1695 C   0  0  1  0  0  0  0  0  0  0  0  0
   -3.2765   -1.9502   -1.1718 N   0  0  0  0  0  0  0  0  0  0  0  0
   -4.6992   -2.7976   -1.1639 S   0  0  1  0  0  0  0  0  0  0  0  0
   -4.4009   -4.0775   -0.6233 O   0  0  0  0  0  0  0  0  0  0  0  0
   -5.6799   -1.9301   -0.6117 O   0  0  0  0  0  0  0  0  0  0  0  0
   -5.1582   -3.0620   -2.8444 C   0  0  0  0  0  0  0  0  0  0  0  0
   -5.2028   -4.3454   -3.3549 C   0  0  0  0  0  0  0  0  0  0  0  0
   -5.5629   -4.5529   -4.6736 C   0  0  0  0  0  0  0  0  0  0  0  0
   -5.6113   -5.9527   -5.2298 C   0  0  1  0  0  0  0  0  0  0  0  0
   -6.8910   -6.4856   -5.0408 F   0  0  0  0  0  0  0  0  0  0  0  0
   -5.3163   -5.9218   -6.5970 F   0  0  0  0  0  0  0  0  0  0  0  0
   -4.6716   -6.7503   -4.5679 F   0  0  0  0  0  0  0  0  0  0  0  0
   -5.8790   -3.4771   -5.4819 C   0  0  0  0  0  0  0  0  0  0  0  0
   -5.8347   -2.1929   -4.9723 C   0  0  0  0  0  0  0  0  0  0  0  0
   -5.4796   -1.9850   -3.6516 C   0  0  0  0  0  0  0  0  0  0  0  0
   -5.4239   -0.3725   -3.0109 Cl  0  0  0  0  0  0  0  0  0  0  0  0
   -1.9865   -2.6543   -1.1817 C   0  0  1  0  0  0  0  0  0  0  0  0
   -1.1511   -2.1634    0.0014 C   0  0  1  0  0  0  0  0  0  0  0  0
    1.0042    1.8801    0.0026 H   0  0  0  0  0  0  0  0  0  0  0  0
   -0.5455    1.8639   -0.8728 H   0  0  0  0  0  0  0  0  0  0  0  0
   -0.5286    1.8543    0.9071 H   0  0  0  0  0  0  0  0  0  0  0  0
   -2.9722   -0.2036    0.9495 H   0  0  0  0  0  0  0  0  0  0  0  0
   -2.2775    1.0835   -0.0702 H   0  0  0  0  0  0  0  0  0  0  0  0
   -4.3046   -0.1182   -1.0719 H   0  0  0  0  0  0  0  0  0  0  0  0
   -2.8470   -0.1119   -2.0989 H   0  0  0  0  0  0  0  0  0  0  0  0
   -4.9559   -5.1863   -2.7239 H   0  0  0  0  0  0  0  0  0  0  0  0
   -6.1602   -3.6399   -6.5118 H   0  0  0  0  0  0  0  0  0  0  0  0
   -6.0817   -1.3524   -5.6039 H   0  0  0  0  0  0  0  0  0  0  0  0
   -2.1549   -3.7275   -1.0922 H   0  0  0  0  0  0  0  0  0  0  0  0
   -1.4602   -2.4404   -2.1119 H   0  0  0  0  0  0  0  0  0  0  0  0
   -0.1281   -2.5265   -0.0974 H   0  0  0  0  0  0  0  0  0  0  0  0
   -1.5839   -2.5303    0.9321 H   0  0  0  0  0  0  0  0  0  0  0  0
  1  2  1  0
  1 24  1  6
  1 25  1  0
  1 26  1  0
  2  3  2  0
  2  4  1  0
  4 23  1  0
  4  5  1  0
  5  6  1  0
  5 27  1  1
  5 28  1  0
  6  7  1  0
  6 29  1  1
  6 30  1  0
  8  7  1  6
  7 22  1  0
  8  9  2  0
  8 10  2  0
  8 11  1  0
 11 20  2  0
 11 12  1  0
 12 13  2  0
 12 31  1  0
 13 14  1  0
 13 18  1  0
 14 15  1  6
 14 16  1  0
 14 17  1  0
 18 19  2  0
 18 32  1  0
 19 20  1  0
 19 33  1  0
 20 21  1  0
 22 23  1  0
 22 34  1  1
 22 35  1  0
 23 36  1  6
 23 37  1  0
M  END
$$$$
