ZINC000009806695
     RDKit          3D

 51 53  0  0  1  0  0  0  0  0999 V2000
    0.4684    1.8000    0.3563 C   0  0  1  0  0  0  0  0  0  0  0  0
    0.5036    0.3750    0.2551 O   0  0  0  0  0  0  0  0  0  0  0  0
    1.0324   -0.3053    1.3060 C   0  0  0  0  0  0  0  0  0  0  0  0
    1.5024    0.3841    2.4143 C   0  0  0  0  0  0  0  0  0  0  0  0
    2.0391   -0.3097    3.4815 C   0  0  0  0  0  0  0  0  0  0  0  0
    2.1084   -1.6902    3.4455 C   0  0  0  0  0  0  0  0  0  0  0  0
    2.7940   -2.5722    4.8081 S   0  0  1  0  0  0  0  0  0  0  0  0
    3.2355   -3.8220    4.2958 O   0  0  0  0  0  0  0  0  0  0  0  0
    3.6512   -1.6628    5.4843 O   0  0  0  0  0  0  0  0  0  0  0  0
    1.5515   -2.9068    5.8505 N   0  0  0  0  0  0  0  0  0  0  0  0
    1.1645   -2.0912    7.0160 C   0  0  1  0  0  0  0  0  0  0  0  0
   -0.3271   -2.4309    7.2600 C   0  0  1  0  0  0  0  0  0  0  0  0
   -0.3603   -3.9456    6.9258 C   0  0  1  0  0  0  0  0  0  0  0  0
    0.6477   -4.0632    5.7633 C   0  0  2  0  0  0  0  0  0  0  0  0
    0.1177   -4.0547    4.8109 H   0  0  0  0  0  0  0  0  0  0  0  0
    1.4510   -5.3581    5.9000 C   0  0  1  0  0  0  0  0  0  0  0  0
    0.5485   -6.5067    5.7884 N   0  0  0  0  0  0  0  0  0  0  0  0
    1.0195   -7.7549    5.9796 C   0  0  0  0  0  0  0  0  0  0  0  0
    2.2087   -7.9356    6.1550 O   0  0  0  0  0  0  0  0  0  0  0  0
    0.0898   -8.9045    5.9761 C   0  0  0  0  0  0  0  0  0  0  0  0
   -1.2572   -8.7156    5.6627 C   0  0  0  0  0  0  0  0  0  0  0  0
   -2.1193   -9.7926    5.6608 C   0  0  0  0  0  0  0  0  0  0  0  0
   -1.6515  -11.0577    5.9691 C   0  0  0  0  0  0  0  0  0  0  0  0
   -2.5991  -12.2295    5.9655 C   0  0  1  0  0  0  0  0  0  0  0  0
   -2.6256  -12.8039    4.6901 F   0  0  0  0  0  0  0  0  0  0  0  0
   -2.1682  -13.1806    6.8965 F   0  0  0  0  0  0  0  0  0  0  0  0
   -3.8834  -11.7916    6.3065 F   0  0  0  0  0  0  0  0  0  0  0  0
   -0.3174  -11.2518    6.2802 C   0  0  0  0  0  0  0  0  0  0  0  0
    0.5564  -10.1842    6.2806 C   0  0  0  0  0  0  0  0  0  0  0  0
    1.6401   -2.3797    2.3423 C   0  0  0  0  0  0  0  0  0  0  0  0
    1.0978   -1.6907    1.2748 C   0  0  0  0  0  0  0  0  0  0  0  0
    1.4831    2.1812    0.4712 H   0  0  0  0  0  0  0  0  0  0  0  0
    0.0236    2.2175   -0.5470 H   0  0  0  0  0  0  0  0  0  0  0  0
   -0.1282    2.0882    1.2218 H   0  0  0  0  0  0  0  0  0  0  0  0
    1.4492    1.4625    2.4426 H   0  0  0  0  0  0  0  0  0  0  0  0
    2.4051    0.2265    4.3445 H   0  0  0  0  0  0  0  0  0  0  0  0
    1.7628   -2.3638    7.8853 H   0  0  0  0  0  0  0  0  0  0  0  0
    1.2803   -1.0307    6.7921 H   0  0  0  0  0  0  0  0  0  0  0  0
   -0.6030   -2.2540    8.2996 H   0  0  0  0  0  0  0  0  0  0  0  0
   -0.9715   -1.8676    6.5851 H   0  0  0  0  0  0  0  0  0  0  0  0
   -0.0370   -4.5368    7.7827 H   0  0  0  0  0  0  0  0  0  0  0  0
   -1.3563   -4.2473    6.6016 H   0  0  0  0  0  0  0  0  0  0  0  0
    2.1999   -5.4063    5.1095 H   0  0  0  0  0  0  0  0  0  0  0  0
    1.9459   -5.3779    6.8710 H   0  0  0  0  0  0  0  0  0  0  0  0
   -0.3881   -6.3689    5.5769 H   0  0  0  0  0  0  0  0  0  0  0  0
   -1.6237   -7.7285    5.4226 H   0  0  0  0  0  0  0  0  0  0  0  0
   -3.1618   -9.6479    5.4185 H   0  0  0  0  0  0  0  0  0  0  0  0
    0.0415  -12.2419    6.5196 H   0  0  0  0  0  0  0  0  0  0  0  0
    1.5976  -10.3371    6.5233 H   0  0  0  0  0  0  0  0  0  0  0  0
    1.6950   -3.4580    2.3167 H   0  0  0  0  0  0  0  0  0  0  0  0
    0.7322   -2.2298    0.4132 H   0  0  0  0  0  0  0  0  0  0  0  0
  1  2  1  0
  1 32  1  1
  1 33  1  0
  1 34  1  0
  2  3  1  0
  3 31  2  0
  3  4  1  0
  4  5  2  0
  4 35  1  0
  5  6  1  0
  5 36  1  0
  6  7  1  0
  6 30  2  0
  7  8  2  0
  7  9  2  0
  7 10  1  1
 10 14  1  0
 10 11  1  0
 11 12  1  0
 11 37  1  1
 11 38  1  0
 12 13  1  0
 12 39  1  1
 12 40  1  0
 13 14  1  0
 13 41  1  1
 13 42  1  0
 14 15  1  6
 14 16  1  0
 16 17  1  0
 16 43  1  6
 16 44  1  0
 17 18  1  0
 17 45  1  0
 18 19  2  0
 18 20  1  0
 20 29  2  0
 20 21  1  0
 21 22  2  0
 21 46  1  0
 22 23  1  0
 22 47  1  0
 23 24  1  0
 23 28  2  0
 24 25  1  6
 24 26  1  0
 24 27  1  0
 28 29  1  0
 28 48  1  0
 29 49  1  0
 30 31  1  0
 30 50  1  0
 31 51  1  0
M  END
$$$$
