ZINC000016575272
     RDKit          3D

 52 53  0  0  0  0  0  0  0  0999 V2000
   -0.0187    1.5258    0.0104 C   0  0  1  0  0  0  0  0  0  0  0  0
    0.0021   -0.0041    0.0020 C   0  0  1  0  0  0  0  0  0  0  0  0
    0.7421   -0.5109    1.2415 C   0  0  1  0  0  0  0  0  0  0  0  0
   -1.4333   -0.5336    0.0129 C   0  0  1  0  0  0  0  0  0  0  0  0
   -2.1054   -0.1483   -1.2305 N   0  0  0  0  0  0  0  0  0  0  0  0
   -3.3867   -0.5081   -1.4434 C   0  0  0  0  0  0  0  0  0  0  0  0
   -3.9833   -1.1509   -0.6057 O   0  0  0  0  0  0  0  0  0  0  0  0
   -4.0781   -0.1117   -2.7225 C   0  0  1  0  0  0  0  0  0  0  0  0
   -5.4525   -0.6188   -2.7121 N   0  0  0  0  0  0  0  0  0  0  0  0
   -6.5138    0.1550   -2.0634 C   0  0  1  0  0  0  0  0  0  0  0  0
   -7.0603    1.1938   -3.0449 C   0  0  1  0  0  0  0  0  0  0  0  0
   -8.1521    1.9898   -2.3776 C   0  0  0  0  0  0  0  0  0  0  0  0
   -9.4641    1.5610   -2.4518 C   0  0  0  0  0  0  0  0  0  0  0  0
  -10.4656    2.2912   -1.8397 C   0  0  0  0  0  0  0  0  0  0  0  0
  -10.1551    3.4500   -1.1530 C   0  0  0  0  0  0  0  0  0  0  0  0
   -8.8429    3.8784   -1.0780 C   0  0  0  0  0  0  0  0  0  0  0  0
   -7.8409    3.1459   -1.6865 C   0  0  0  0  0  0  0  0  0  0  0  0
   -5.8063   -2.0668   -3.4336 S   0  0  1  0  0  0  0  0  0  0  0  0
   -7.1488   -1.9706   -3.8892 O   0  0  0  0  0  0  0  0  0  0  0  0
   -4.7138   -2.3650   -4.2919 O   0  0  0  0  0  0  0  0  0  0  0  0
   -5.7963   -3.2952   -2.1704 C   0  0  0  0  0  0  0  0  0  0  0  0
   -4.6248   -3.9619   -1.8639 C   0  0  0  0  0  0  0  0  0  0  0  0
   -4.6169   -4.9256   -0.8729 C   0  0  0  0  0  0  0  0  0  0  0  0
   -5.7805   -5.2223   -0.1881 C   0  0  0  0  0  0  0  0  0  0  0  0
   -6.9518   -4.5549   -0.4939 C   0  0  0  0  0  0  0  0  0  0  0  0
   -6.9587   -3.5882   -1.4820 C   0  0  0  0  0  0  0  0  0  0  0  0
    1.0039    1.9031    0.0027 H   0  0  0  0  0  0  0  0  0  0  0  0
   -0.5459    1.8868   -0.8726 H   0  0  0  0  0  0  0  0  0  0  0  0
   -0.5289    1.8773    0.9072 H   0  0  0  0  0  0  0  0  0  0  0  0
    0.5123   -0.3556   -0.8948 H   0  0  0  0  0  0  0  0  0  0  0  0
    0.2319   -0.1594    2.1383 H   0  0  0  0  0  0  0  0  0  0  0  0
    0.7568   -1.6008    1.2356 H   0  0  0  0  0  0  0  0  0  0  0  0
    1.7647   -0.1336    1.2338 H   0  0  0  0  0  0  0  0  0  0  0  0
   -1.4190   -1.6203    0.0965 H   0  0  0  0  0  0  0  0  0  0  0  0
   -1.9701   -0.1109    0.8621 H   0  0  0  0  0  0  0  0  0  0  0  0
   -1.6283    0.3658   -1.9006 H   0  0  0  0  0  0  0  0  0  0  0  0
   -4.0923    0.9749   -2.8061 H   0  0  0  0  0  0  0  0  0  0  0  0
   -3.5412   -0.5345   -3.5717 H   0  0  0  0  0  0  0  0  0  0  0  0
   -7.3177   -0.5151   -1.7587 H   0  0  0  0  0  0  0  0  0  0  0  0
   -6.1104    0.6609   -1.1862 H   0  0  0  0  0  0  0  0  0  0  0  0
   -6.2564    1.8639   -3.3496 H   0  0  0  0  0  0  0  0  0  0  0  0
   -7.4637    0.6879   -3.9220 H   0  0  0  0  0  0  0  0  0  0  0  0
   -9.7068    0.6556   -2.9883 H   0  0  0  0  0  0  0  0  0  0  0  0
  -11.4908    1.9565   -1.8983 H   0  0  0  0  0  0  0  0  0  0  0  0
  -10.9376    4.0209   -0.6754 H   0  0  0  0  0  0  0  0  0  0  0  0
   -8.6003    4.7840   -0.5418 H   0  0  0  0  0  0  0  0  0  0  0  0
   -6.8157    3.4806   -1.6279 H   0  0  0  0  0  0  0  0  0  0  0  0
   -3.7157   -3.7301   -2.3990 H   0  0  0  0  0  0  0  0  0  0  0  0
   -3.7018   -5.4470   -0.6340 H   0  0  0  0  0  0  0  0  0  0  0  0
   -5.7745   -5.9757    0.5857 H   0  0  0  0  0  0  0  0  0  0  0  0
   -7.8609   -4.7869    0.0409 H   0  0  0  0  0  0  0  0  0  0  0  0
   -7.8738   -3.0667   -1.7209 H   0  0  0  0  0  0  0  0  0  0  0  0
  1  2  1  0
  1 27  1  6
  1 28  1  0
  1 29  1  0
  2  3  1  0
  2  4  1  0
  2 30  1  6
  3 31  1  1
  3 32  1  0
  3 33  1  0
  4  5  1  0
  4 34  1  1
  4 35  1  0
  5  6  1  0
  5 36  1  0
  6  7  2  0
  6  8  1  0
  8  9  1  0
  8 37  1  6
  8 38  1  0
  9 10  1  0
 18  9  1  1
 10 11  1  0
 10 39  1  1
 10 40  1  0
 11 12  1  0
 11 41  1  6
 11 42  1  0
 12 17  2  0
 12 13  1  0
 13 14  2  0
 13 43  1  0
 14 15  1  0
 14 44  1  0
 15 16  2  0
 15 45  1  0
 16 17  1  0
 16 46  1  0
 17 47  1  0
 18 19  2  0
 18 20  2  0
 18 21  1  0
 21 26  2  0
 21 22  1  0
 22 23  2  0
 22 48  1  0
 23 24  1  0
 23 49  1  0
 24 25  2  0
 24 50  1  0
 25 26  1  0
 25 51  1  0
 26 52  1  0
M  END
$$$$
