ZINC000000920759
     RDKit          3D

 54 56  0  0  1  0  0  0  0  0999 V2000
   -0.0184    1.5028    0.0103 C   0  0  1  0  0  0  0  0  0  0  0  0
    0.0021   -0.0041    0.0020 C   0  0  0  0  0  0  0  0  0  0  0  0
    0.0057   -0.6887   -1.1989 C   0  0  0  0  0  0  0  0  0  0  0  0
    0.0245   -2.0709   -1.2065 C   0  0  0  0  0  0  0  0  0  0  0  0
    0.0400   -2.7685   -0.0132 C   0  0  0  0  0  0  0  0  0  0  0  0
    0.0600   -4.2753   -0.0215 C   0  0  1  0  0  0  0  0  0  0  0  0
    1.4475   -4.7453   -0.0315 N   0  0  0  0  0  0  0  0  0  0  0  0
    2.1835   -4.8824    1.2278 C   0  0  1  0  0  0  0  0  0  0  0  0
    1.8847   -6.2264    1.8405 C   0  0  0  0  0  0  0  0  0  0  0  0
    1.1311   -6.9941    1.2805 O   0  0  0  0  0  0  0  0  0  0  0  0
    2.4548   -6.5752    3.0108 N   0  0  0  0  0  0  0  0  0  0  0  0
    2.1643   -7.8817    3.6065 C   0  0  1  0  0  0  0  0  0  0  0  0
    2.9330   -8.0249    4.9216 C   0  0  2  0  0  0  0  0  0  0  0  0
    3.9943   -7.8443    4.7510 H   0  0  0  0  0  0  0  0  0  0  0  0
    2.7288   -9.4434    5.4958 C   0  0  1  0  0  0  0  0  0  0  0  0
    2.6015   -9.1673    7.0188 C   0  0  1  0  0  0  0  0  0  0  0  0
    1.8805   -7.7959    7.0098 C   0  0  1  0  0  0  0  0  0  0  0  0
    2.4294   -7.0902    5.8831 O   0  0  0  0  0  0  0  0  0  0  0  0
    2.1840   -5.1215   -1.4662 S   0  0  1  0  0  0  0  0  0  0  0  0
    3.1329   -6.1386   -1.1755 O   0  0  0  0  0  0  0  0  0  0  0  0
    1.1441   -5.2789   -2.4218 O   0  0  0  0  0  0  0  0  0  0  0  0
    3.1081   -3.7066   -1.9649 C   0  0  0  0  0  0  0  0  0  0  0  0
    2.5161   -2.7372   -2.7528 C   0  0  0  0  0  0  0  0  0  0  0  0
    3.2405   -1.6271   -3.1443 C   0  0  0  0  0  0  0  0  0  0  0  0
    4.5583   -1.4862   -2.7475 C   0  0  0  0  0  0  0  0  0  0  0  0
    5.4687   -0.0919   -3.2383 Cl  0  0  0  0  0  0  0  0  0  0  0  0
    5.1503   -2.4568   -1.9589 C   0  0  0  0  0  0  0  0  0  0  0  0
    4.4232   -3.5636   -1.5634 C   0  0  0  0  0  0  0  0  0  0  0  0
    0.0378   -2.0839    1.1877 C   0  0  0  0  0  0  0  0  0  0  0  0
    0.0229   -0.7016    1.1953 C   0  0  0  0  0  0  0  0  0  0  0  0
    1.0042    1.8801    0.0026 H   0  0  0  0  0  0  0  0  0  0  0  0
   -0.5455    1.8639   -0.8728 H   0  0  0  0  0  0  0  0  0  0  0  0
   -0.5286    1.8543    0.9071 H   0  0  0  0  0  0  0  0  0  0  0  0
   -0.0064   -0.1436   -2.1312 H   0  0  0  0  0  0  0  0  0  0  0  0
    0.0266   -2.6057   -2.1448 H   0  0  0  0  0  0  0  0  0  0  0  0
   -0.4442   -4.6502    0.8692 H   0  0  0  0  0  0  0  0  0  0  0  0
   -0.4538   -4.6406   -0.9107 H   0  0  0  0  0  0  0  0  0  0  0  0
    3.2531   -4.8011    1.0342 H   0  0  0  0  0  0  0  0  0  0  0  0
    1.8777   -4.0936    1.9151 H   0  0  0  0  0  0  0  0  0  0  0  0
    3.0575   -5.9612    3.4588 H   0  0  0  0  0  0  0  0  0  0  0  0
    1.0947   -7.9630    3.8001 H   0  0  0  0  0  0  0  0  0  0  0  0
    2.4701   -8.6705    2.9192 H   0  0  0  0  0  0  0  0  0  0  0  0
    1.8156   -9.8923    5.1052 H   0  0  0  0  0  0  0  0  0  0  0  0
    3.5927  -10.0745    5.2868 H   0  0  0  0  0  0  0  0  0  0  0  0
    1.9921   -9.9283    7.5064 H   0  0  0  0  0  0  0  0  0  0  0  0
    3.5826   -9.0924    7.4878 H   0  0  0  0  0  0  0  0  0  0  0  0
    0.8066   -7.9338    6.8841 H   0  0  0  0  0  0  0  0  0  0  0  0
    2.0877   -7.2535    7.9323 H   0  0  0  0  0  0  0  0  0  0  0  0
    1.4874   -2.8475   -3.0628 H   0  0  0  0  0  0  0  0  0  0  0  0
    2.7779   -0.8700   -3.7601 H   0  0  0  0  0  0  0  0  0  0  0  0
    6.1791   -2.3475   -1.6491 H   0  0  0  0  0  0  0  0  0  0  0  0
    4.8851   -4.3211   -0.9476 H   0  0  0  0  0  0  0  0  0  0  0  0
    0.0503   -2.6289    2.1200 H   0  0  0  0  0  0  0  0  0  0  0  0
    0.0211   -0.1667    2.1335 H   0  0  0  0  0  0  0  0  0  0  0  0
  1  2  1  0
  1 31  1  6
  1 32  1  0
  1 33  1  0
  2 30  2  0
  2  3  1  0
  3  4  2  0
  3 34  1  0
  4  5  1  0
  4 35  1  0
  5  6  1  0
  5 29  2  0
  6  7  1  0
  6 36  1  1
  6 37  1  0
  7  8  1  0
 19  7  1  1
  8  9  1  0
  8 38  1  6
  8 39  1  0
  9 10  2  0
  9 11  1  0
 11 12  1  0
 11 40  1  0
 12 13  1  0
 12 41  1  1
 12 42  1  0
 13 14  1  6
 13 18  1  0
 13 15  1  0
 15 16  1  0
 15 43  1  6
 15 44  1  0
 16 17  1  0
 16 45  1  1
 16 46  1  0
 17 18  1  0
 17 47  1  6
 17 48  1  0
 19 20  2  0
 19 21  2  0
 19 22  1  0
 22 28  2  0
 22 23  1  0
 23 24  2  0
 23 49  1  0
 24 25  1  0
 24 50  1  0
 25 26  1  0
 25 27  2  0
 27 28  1  0
 27 51  1  0
 28 52  1  0
 29 30  1  0
 29 53  1  0
 30 54  1  0
M  END
$$$$
