ZINC000013117958
     RDKit          3D

 61 63  0  0  1  0  0  0  0  0999 V2000
   -0.2864    1.3707   -0.6191 C   0  0  1  0  0  0  0  0  0  0  0  0
   -0.0002    0.0015    0.0008 C   0  0  2  0  0  0  0  0  0  0  0  0
    0.5648    0.1314    0.9238 H   0  0  0  0  0  0  0  0  0  0  0  0
    0.8023   -0.8300   -0.9665 C   0  0  0  0  0  0  0  0  0  0  0  0
    0.2695   -1.7315   -1.5784 O   0  0  0  0  0  0  0  0  0  0  0  0
    2.1121   -0.5719   -1.1517 N   0  0  0  0  0  0  0  0  0  0  0  0
    2.7491    0.5767   -0.4932 C   0  0  1  0  0  0  0  0  0  0  0  0
    3.9761    0.0836    0.2802 C   0  0  2  0  0  0  0  0  0  0  0  0
    3.6564   -0.5730    1.0894 H   0  0  0  0  0  0  0  0  0  0  0  0
    4.7287    1.2819    0.8619 C   0  0  1  0  0  0  0  0  0  0  0  0
    4.8967   -0.6868   -0.6691 C   0  0  1  0  0  0  0  0  0  0  0  0
    4.1550   -1.9043   -1.2255 C   0  0  2  0  0  0  0  0  0  0  0  0
    3.8336   -2.5421   -0.4021 H   0  0  0  0  0  0  0  0  0  0  0  0
    5.0870   -2.6924   -2.1481 C   0  0  1  0  0  0  0  0  0  0  0  0
    2.9314   -1.4372   -2.0111 C   0  0  1  0  0  0  0  0  0  0  0  0
   -1.2690   -0.6778    0.2949 N   0  0  0  0  0  0  0  0  0  0  0  0
   -2.1806   -0.6115   -0.8552 C   0  0  1  0  0  0  0  0  0  0  0  0
   -3.4119   -1.4804   -0.5775 C   0  0  1  0  0  0  0  0  0  0  0  0
   -3.9981   -1.0638    0.7054 N   0  0  0  0  0  0  0  0  0  0  0  0
   -5.6105   -0.7066    0.8271 S   0  0  1  0  0  0  0  0  0  0  0  0
   -5.7477    0.1515    1.9515 O   0  0  0  0  0  0  0  0  0  0  0  0
   -6.0424   -0.3510   -0.4792 O   0  0  0  0  0  0  0  0  0  0  0  0
   -6.4466   -2.2022    1.2377 C   0  0  0  0  0  0  0  0  0  0  0  0
   -6.9107   -3.0324    0.2346 C   0  0  0  0  0  0  0  0  0  0  0  0
   -7.5666   -4.2058    0.5567 C   0  0  0  0  0  0  0  0  0  0  0  0
   -7.7580   -4.5493    1.8820 C   0  0  0  0  0  0  0  0  0  0  0  0
   -8.4735   -5.8282    2.2332 C   0  0  1  0  0  0  0  0  0  0  0  0
   -7.5439   -6.8681    2.3412 F   0  0  0  0  0  0  0  0  0  0  0  0
   -9.1399   -5.6699    3.4531 F   0  0  0  0  0  0  0  0  0  0  0  0
   -9.4009   -6.1340    1.2314 F   0  0  0  0  0  0  0  0  0  0  0  0
   -7.2926   -3.7197    2.8851 C   0  0  0  0  0  0  0  0  0  0  0  0
   -6.6333   -2.5482    2.5630 C   0  0  0  0  0  0  0  0  0  0  0  0
   -3.1143   -0.9733    1.8776 C   0  0  1  0  0  0  0  0  0  0  0  0
   -1.8947   -0.1244    1.5033 C   0  0  1  0  0  0  0  0  0  0  0  0
    0.6497    1.9139   -0.7481 H   0  0  0  0  0  0  0  0  0  0  0  0
   -0.7658    1.2374   -1.5888 H   0  0  0  0  0  0  0  0  0  0  0  0
   -0.9470    1.9361    0.0382 H   0  0  0  0  0  0  0  0  0  0  0  0
    3.0585    1.3033   -1.2445 H   0  0  0  0  0  0  0  0  0  0  0  0
    2.0438    1.0395    0.1971 H   0  0  0  0  0  0  0  0  0  0  0  0
    4.0714    1.8314    1.5358 H   0  0  0  0  0  0  0  0  0  0  0  0
    5.6016    0.9306    1.4120 H   0  0  0  0  0  0  0  0  0  0  0  0
    5.0492    1.9376    0.0522 H   0  0  0  0  0  0  0  0  0  0  0  0
    5.1962   -0.0370   -1.4914 H   0  0  0  0  0  0  0  0  0  0  0  0
    5.7825   -1.0177   -0.1269 H   0  0  0  0  0  0  0  0  0  0  0  0
    5.9595   -3.0246   -1.5855 H   0  0  0  0  0  0  0  0  0  0  0  0
    4.5584   -3.5594   -2.5442 H   0  0  0  0  0  0  0  0  0  0  0  0
    5.4072   -2.0545   -2.9720 H   0  0  0  0  0  0  0  0  0  0  0  0
    2.3467   -2.3020   -2.3248 H   0  0  0  0  0  0  0  0  0  0  0  0
    3.2528   -0.8736   -2.8870 H   0  0  0  0  0  0  0  0  0  0  0  0
   -2.4922    0.4209   -1.0133 H   0  0  0  0  0  0  0  0  0  0  0  0
   -1.6699   -0.9782   -1.7456 H   0  0  0  0  0  0  0  0  0  0  0  0
   -4.1426   -1.3455   -1.3750 H   0  0  0  0  0  0  0  0  0  0  0  0
   -3.1158   -2.5280   -0.5218 H   0  0  0  0  0  0  0  0  0  0  0  0
   -6.7612   -2.7641   -0.8008 H   0  0  0  0  0  0  0  0  0  0  0  0
   -7.9299   -4.8541   -0.2270 H   0  0  0  0  0  0  0  0  0  0  0  0
   -7.4418   -3.9883    3.9205 H   0  0  0  0  0  0  0  0  0  0  0  0
   -6.2698   -1.9001    3.3467 H   0  0  0  0  0  0  0  0  0  0  0  0
   -3.6482   -0.5031    2.7034 H   0  0  0  0  0  0  0  0  0  0  0  0
   -2.7896   -1.9721    2.1693 H   0  0  0  0  0  0  0  0  0  0  0  0
   -1.1767   -0.1377    2.3233 H   0  0  0  0  0  0  0  0  0  0  0  0
   -2.2102    0.9013    1.3123 H   0  0  0  0  0  0  0  0  0  0  0  0
  1  2  1  0
  1 35  1  6
  1 36  1  0
  1 37  1  0
  2  3  1  1
  2  4  1  0
  2 16  1  0
  4  5  2  0
  4  6  1  0
  6 15  1  0
  6  7  1  0
  7  8  1  0
  7 38  1  6
  7 39  1  0
  8  9  1  1
  8 10  1  0
  8 11  1  0
 10 40  1  1
 10 41  1  0
 10 42  1  0
 11 12  1  0
 11 43  1  6
 11 44  1  0
 12 13  1  1
 12 14  1  0
 12 15  1  0
 14 45  1  1
 14 46  1  0
 14 47  1  0
 15 48  1  6
 15 49  1  0
 16 34  1  0
 16 17  1  0
 17 18  1  0
 17 50  1  6
 17 51  1  0
 18 19  1  0
 18 52  1  6
 18 53  1  0
 20 19  1  6
 19 33  1  0
 20 21  2  0
 20 22  2  0
 20 23  1  0
 23 32  2  0
 23 24  1  0
 24 25  2  0
 24 54  1  0
 25 26  1  0
 25 55  1  0
 26 27  1  0
 26 31  2  0
 27 28  1  1
 27 29  1  0
 27 30  1  0
 31 32  1  0
 31 56  1  0
 32 57  1  0
 33 34  1  0
 33 58  1  1
 33 59  1  0
 34 60  1  1
 34 61  1  0
M  END
$$$$
