ZINC000065363829
     RDKit          3D

 44 45  0  0  1  0  0  0  0  0999 V2000
    0.2919    1.1251   -0.7080 C   0  0  1  0  0  0  0  0  0  0  0  0
    0.2301   -0.3559   -0.3289 C   0  0  1  0  0  0  0  0  0  0  0  0
   -0.8097   -0.6819   -0.3057 H   0  0  0  0  0  0  0  0  0  0  0  0
    0.9884   -1.1672   -1.3477 C   0  0  0  0  0  0  0  0  0  0  0  0
    2.0938   -1.5911   -1.0844 O   0  0  0  0  0  0  0  0  0  0  0  0
    0.4381   -1.4218   -2.5513 N   0  0  0  0  0  0  0  0  0  0  0  0
   -0.9387   -1.0030   -2.8586 C   0  0  1  0  0  0  0  0  0  0  0  0
   -0.9273   -0.2437   -4.1903 C   0  0  1  0  0  0  0  0  0  0  0  0
   -0.2697   -1.0388   -5.1798 O   0  0  0  0  0  0  0  0  0  0  0  0
    1.1039   -1.3122   -4.8929 C   0  0  1  0  0  0  0  0  0  0  0  0
    1.1984   -2.1213   -3.5992 C   0  0  1  0  0  0  0  0  0  0  0  0
    0.8314   -0.5470    0.9932 N   0  0  0  0  0  0  0  0  0  0  0  0
    2.1263   -0.0876    1.2446 C   0  0  0  0  0  0  0  0  0  0  0  0
    2.3751    1.2755    1.3392 C   0  0  0  0  0  0  0  0  0  0  0  0
    3.6567    1.7264    1.5883 C   0  0  0  0  0  0  0  0  0  0  0  0
    4.6913    0.8224    1.7435 C   0  0  0  0  0  0  0  0  0  0  0  0
    4.4471   -0.5357    1.6495 C   0  0  0  0  0  0  0  0  0  0  0  0
    5.5779   -1.5172    1.8194 C   0  0  1  0  0  0  0  0  0  0  0  0
    6.7672   -0.8212    2.0611 F   0  0  0  0  0  0  0  0  0  0  0  0
    5.3039   -2.3618    2.9004 F   0  0  0  0  0  0  0  0  0  0  0  0
    5.7125   -2.2798    0.6542 F   0  0  0  0  0  0  0  0  0  0  0  0
    3.1673   -0.9934    1.4063 C   0  0  0  0  0  0  0  0  0  0  0  0
   -0.0241   -1.3078    2.1898 S   0  0  1  0  0  0  0  0  0  0  0  0
    0.4565   -3.0515    2.0512 C   0  0  1  0  0  0  0  0  0  0  0  0
    0.4807   -0.7455    3.3932 O   0  0  0  0  0  0  0  0  0  0  0  0
   -1.3833   -1.1337    1.8136 O   0  0  0  0  0  0  0  0  0  0  0  0
    1.3323    1.4489   -0.7398 H   0  0  0  0  0  0  0  0  0  0  0  0
   -0.1634    1.2687   -1.6879 H   0  0  0  0  0  0  0  0  0  0  0  0
   -0.2490    1.7129    0.0336 H   0  0  0  0  0  0  0  0  0  0  0  0
   -1.5795   -1.8809   -2.9421 H   0  0  0  0  0  0  0  0  0  0  0  0
   -1.3094   -0.3512   -2.0676 H   0  0  0  0  0  0  0  0  0  0  0  0
   -1.9518   -0.0450   -4.5049 H   0  0  0  0  0  0  0  0  0  0  0  0
   -0.3940    0.6989   -4.0673 H   0  0  0  0  0  0  0  0  0  0  0  0
    1.5407   -1.8822   -5.7130 H   0  0  0  0  0  0  0  0  0  0  0  0
    1.6445   -0.3735   -4.7725 H   0  0  0  0  0  0  0  0  0  0  0  0
    2.2422   -2.2124   -3.2986 H   0  0  0  0  0  0  0  0  0  0  0  0
    0.7727   -3.1126   -3.7542 H   0  0  0  0  0  0  0  0  0  0  0  0
    1.5674    1.9822    1.2177 H   0  0  0  0  0  0  0  0  0  0  0  0
    3.8509    2.7863    1.6616 H   0  0  0  0  0  0  0  0  0  0  0  0
    5.6924    1.1776    1.9382 H   0  0  0  0  0  0  0  0  0  0  0  0
    2.9773   -2.0540    1.3330 H   0  0  0  0  0  0  0  0  0  0  0  0
    1.5436   -3.1297    2.0493 H   0  0  0  0  0  0  0  0  0  0  0  0
    0.0537   -3.6077    2.8976 H   0  0  0  0  0  0  0  0  0  0  0  0
    0.0608   -3.4648    1.1234 H   0  0  0  0  0  0  0  0  0  0  0  0
  1  2  1  0
  1 27  1  6
  1 28  1  0
  1 29  1  0
  2  3  1  1
  2  4  1  0
  2 12  1  0
  4  5  2  0
  4  6  1  0
  6 11  1  0
  6  7  1  0
  7  8  1  0
  7 30  1  6
  7 31  1  0
  8  9  1  0
  8 32  1  6
  8 33  1  0
  9 10  1  0
 10 11  1  0
 10 34  1  6
 10 35  1  0
 11 36  1  1
 11 37  1  0
 12 13  1  0
 23 12  1  6
 13 22  2  0
 13 14  1  0
 14 15  2  0
 14 38  1  0
 15 16  1  0
 15 39  1  0
 16 17  2  0
 16 40  1  0
 17 18  1  0
 17 22  1  0
 18 19  1  1
 18 20  1  0
 18 21  1  0
 22 41  1  0
 23 24  1  0
 23 25  2  0
 23 26  2  0
 24 42  1  6
 24 43  1  0
 24 44  1  0
M  END
$$$$
