ZINC000053202972
     RDKit          3D

 39 40  0  0  1  0  0  0  0  0999 V2000
   -0.0178    1.4648    0.0101 C   0  0  1  0  0  0  0  0  0  0  0  0
    0.0021   -0.0041    0.0020 N   0  0  1  0  0  0  0  0  0  0  0  0
    0.4901   -0.3383    0.8195 H   0  0  0  0  0  0  0  0  0  0  0  0
   -0.9445   -0.3533    0.0092 H   0  0  0  0  0  0  0  0  0  0  0  0
    0.6897   -0.4778   -1.2066 C   0  0  2  0  0  0  0  0  0  0  0  0
    1.6818   -0.0296   -1.2600 H   0  0  0  0  0  0  0  0  0  0  0  0
   -0.1184   -0.0788   -2.4435 C   0  0  1  0  0  0  0  0  0  0  0  0
    0.6136   -0.5432   -3.7048 C   0  0  1  0  0  0  0  0  0  0  0  0
    0.7422   -2.0695   -3.6829 C   0  0  1  0  0  0  0  0  0  0  0  0
    1.3897   -2.4717   -2.4268 N   0  0  0  0  0  0  0  0  0  0  0  0
    2.7370   -3.4343   -2.4427 S   0  0  1  0  0  0  0  0  0  0  0  0
    2.7854   -4.0777   -1.1766 O   0  0  0  0  0  0  0  0  0  0  0  0
    2.7094   -4.1430   -3.6740 O   0  0  0  0  0  0  0  0  0  0  0  0
    4.1385   -2.3688   -2.5132 C   0  0  0  0  0  0  0  0  0  0  0  0
    4.6485   -1.9775   -3.7370 C   0  0  0  0  0  0  0  0  0  0  0  0
    5.7480   -1.1416   -3.7923 C   0  0  0  0  0  0  0  0  0  0  0  0
    6.3374   -0.6965   -2.6238 C   0  0  0  0  0  0  0  0  0  0  0  0
    7.5363    0.2145   -2.6841 C   0  0  1  0  0  0  0  0  0  0  0  0
    7.1095    1.5467   -2.7004 F   0  0  0  0  0  0  0  0  0  0  0  0
    8.3439   -0.0028   -1.5626 F   0  0  0  0  0  0  0  0  0  0  0  0
    8.2687   -0.0548   -3.8453 F   0  0  0  0  0  0  0  0  0  0  0  0
    5.8266   -1.0866   -1.4000 C   0  0  0  0  0  0  0  0  0  0  0  0
    4.7247   -1.9195   -1.3446 C   0  0  0  0  0  0  0  0  0  0  0  0
    0.8198   -2.0034   -1.1561 C   0  0  1  0  0  0  0  0  0  0  0  0
    1.0047    1.8421    0.0024 H   0  0  0  0  0  0  0  0  0  0  0  0
   -0.5450    1.8259   -0.8730 H   0  0  0  0  0  0  0  0  0  0  0  0
   -0.5280    1.8163    0.9069 H   0  0  0  0  0  0  0  0  0  0  0  0
   -1.1018   -0.5468   -2.4014 H   0  0  0  0  0  0  0  0  0  0  0  0
   -0.2329    1.0049   -2.4684 H   0  0  0  0  0  0  0  0  0  0  0  0
    0.0493   -0.2381   -4.5860 H   0  0  0  0  0  0  0  0  0  0  0  0
    1.6067   -0.0948   -3.7349 H   0  0  0  0  0  0  0  0  0  0  0  0
   -0.2483   -2.5205   -3.7442 H   0  0  0  0  0  0  0  0  0  0  0  0
    1.3481   -2.3973   -4.5276 H   0  0  0  0  0  0  0  0  0  0  0  0
    4.1880   -2.3252   -4.6500 H   0  0  0  0  0  0  0  0  0  0  0  0
    6.1468   -0.8365   -4.7485 H   0  0  0  0  0  0  0  0  0  0  0  0
    6.2868   -0.7386   -0.4870 H   0  0  0  0  0  0  0  0  0  0  0  0
    4.3257   -2.2243   -0.3885 H   0  0  0  0  0  0  0  0  0  0  0  0
    1.4767   -2.2879   -0.3341 H   0  0  0  0  0  0  0  0  0  0  0  0
   -0.1645   -2.4487   -1.0109 H   0  0  0  0  0  0  0  0  0  0  0  0
  1  2  1  0
  1 25  1  6
  1 26  1  0
  1 27  1  0
  2  3  1  1
  2  4  1  0
  2  5  1  0
  5  6  1  6
  5 24  1  0
  5  7  1  0
  7  8  1  0
  7 28  1  1
  7 29  1  0
  8  9  1  0
  8 30  1  6
  8 31  1  0
  9 10  1  0
  9 32  1  6
  9 33  1  0
 11 10  1  1
 10 24  1  0
 11 12  2  0
 11 13  2  0
 11 14  1  0
 14 23  2  0
 14 15  1  0
 15 16  2  0
 15 34  1  0
 16 17  1  0
 16 35  1  0
 17 18  1  0
 17 22  2  0
 18 19  1  6
 18 20  1  0
 18 21  1  0
 22 23  1  0
 22 36  1  0
 23 37  1  0
 24 38  1  1
 24 39  1  0
M  CHG  1   2   1
M  END
$$$$
