ZINC000020032702
     RDKit          3D

 60 62  0  0  0  0  0  0  0  0999 V2000
   -0.0178    1.4608    0.0101 C   0  0  1  0  0  0  0  0  0  0  0  0
    0.0021   -0.0041    0.0020 N   0  0  0  0  0  0  0  0  0  0  0  0
    0.0241   -0.7433    1.2666 C   0  0  1  0  0  0  0  0  0  0  0  0
   -0.0004   -0.8243   -1.4366 S   0  0  1  0  0  0  0  0  0  0  0  0
   -0.5247   -2.1160   -1.1611 O   0  0  0  0  0  0  0  0  0  0  0  0
   -0.5660    0.0551   -2.3989 O   0  0  0  0  0  0  0  0  0  0  0  0
    1.6816   -1.0597   -1.9056 C   0  0  0  0  0  0  0  0  0  0  0  0
    2.3224   -0.1085   -2.6779 C   0  0  0  0  0  0  0  0  0  0  0  0
    3.6411   -0.2907   -3.0469 C   0  0  0  0  0  0  0  0  0  0  0  0
    4.3226   -1.4291   -2.6417 C   0  0  0  0  0  0  0  0  0  0  0  0
    5.6201   -1.6104   -3.0031 O   0  0  0  0  0  0  0  0  0  0  0  0
    6.2587   -2.8058   -2.5500 C   0  0  1  0  0  0  0  0  0  0  0  0
    7.6821   -2.8332   -3.0443 C   0  0  0  0  0  0  0  0  0  0  0  0
    8.1077   -1.9191   -3.7182 O   0  0  0  0  0  0  0  0  0  0  0  0
    8.4821   -3.8735   -2.7374 N   0  0  0  0  0  0  0  0  0  0  0  0
    9.8658   -3.9002   -3.2179 C   0  0  1  0  0  0  0  0  0  0  0  0
   10.5393   -5.1608   -2.7401 C   0  0  0  0  0  0  0  0  0  0  0  0
   11.1991   -5.1741   -1.5254 C   0  0  0  0  0  0  0  0  0  0  0  0
   11.8169   -6.3304   -1.0871 C   0  0  0  0  0  0  0  0  0  0  0  0
   11.7745   -7.4735   -1.8632 C   0  0  0  0  0  0  0  0  0  0  0  0
   12.5625   -8.9473   -1.3048 S   0  0  1  0  0  0  0  0  0  0  0  0
   12.8350   -9.7210   -2.4651 O   0  0  0  0  0  0  0  0  0  0  0  0
   13.5689   -8.5413   -0.3873 O   0  0  0  0  0  0  0  0  0  0  0  0
   11.4453   -9.7981   -0.4271 N   0  0  0  0  0  0  0  0  0  0  0  0
   11.3005   -9.5874    1.0220 C   0  0  1  0  0  0  0  0  0  0  0  0
    9.8179   -9.3493    1.3302 C   0  0  1  0  0  0  0  0  0  0  0  0
    9.0431  -10.4079    0.7620 O   0  0  0  0  0  0  0  0  0  0  0  0
    9.1208  -10.4902   -0.6631 C   0  0  1  0  0  0  0  0  0  0  0  0
   10.5639  -10.7827   -1.0743 C   0  0  1  0  0  0  0  0  0  0  0  0
   11.1136   -7.4606   -3.0772 C   0  0  0  0  0  0  0  0  0  0  0  0
   10.4925   -6.3054   -3.5138 C   0  0  0  0  0  0  0  0  0  0  0  0
    3.6776   -2.3818   -1.8665 C   0  0  0  0  0  0  0  0  0  0  0  0
    2.3603   -2.1926   -1.4960 C   0  0  0  0  0  0  0  0  0  0  0  0
    1.0048    1.8381    0.0023 H   0  0  0  0  0  0  0  0  0  0  0  0
   -0.5450    1.8219   -0.8730 H   0  0  0  0  0  0  0  0  0  0  0  0
   -0.5280    1.8123    0.9069 H   0  0  0  0  0  0  0  0  0  0  0  0
   -0.9979   -0.9406    1.5900 H   0  0  0  0  0  0  0  0  0  0  0  0
    0.5496   -1.6879    1.1262 H   0  0  0  0  0  0  0  0  0  0  0  0
    0.5371   -0.1514    2.0246 H   0  0  0  0  0  0  0  0  0  0  0  0
    1.7914    0.7776   -2.9931 H   0  0  0  0  0  0  0  0  0  0  0  0
    4.1409    0.4522   -3.6507 H   0  0  0  0  0  0  0  0  0  0  0  0
    6.2520   -2.8307   -1.4603 H   0  0  0  0  0  0  0  0  0  0  0  0
    5.7231   -3.6729   -2.9365 H   0  0  0  0  0  0  0  0  0  0  0  0
    8.1417   -4.6046   -2.1984 H   0  0  0  0  0  0  0  0  0  0  0  0
    9.8725   -3.8753   -4.3076 H   0  0  0  0  0  0  0  0  0  0  0  0
   10.4014   -3.0331   -2.8314 H   0  0  0  0  0  0  0  0  0  0  0  0
   11.2323   -4.2810   -0.9191 H   0  0  0  0  0  0  0  0  0  0  0  0
   12.3330   -6.3406   -0.1385 H   0  0  0  0  0  0  0  0  0  0  0  0
   11.6497  -10.4699    1.5580 H   0  0  0  0  0  0  0  0  0  0  0  0
   11.8830   -8.7179    1.3266 H   0  0  0  0  0  0  0  0  0  0  0  0
    9.6692   -9.3283    2.4098 H   0  0  0  0  0  0  0  0  0  0  0  0
    9.5049   -8.3978    0.9003 H   0  0  0  0  0  0  0  0  0  0  0  0
    8.4707  -11.2901   -1.0176 H   0  0  0  0  0  0  0  0  0  0  0  0
    8.8053   -9.5429   -1.1003 H   0  0  0  0  0  0  0  0  0  0  0  0
   10.6595  -10.7072   -2.1575 H   0  0  0  0  0  0  0  0  0  0  0  0
   10.8420  -11.7855   -0.7498 H   0  0  0  0  0  0  0  0  0  0  0  0
   11.0801   -8.3538   -3.6834 H   0  0  0  0  0  0  0  0  0  0  0  0
    9.9761   -6.2953   -4.4623 H   0  0  0  0  0  0  0  0  0  0  0  0
    4.2059   -3.2690   -1.5500 H   0  0  0  0  0  0  0  0  0  0  0  0
    1.8578   -2.9338   -0.8923 H   0  0  0  0  0  0  0  0  0  0  0  0
  1  2  1  0
  1 34  1  6
  1 35  1  0
  1 36  1  0
  2  3  1  0
  4  2  1  1
  3 37  1  1
  3 38  1  0
  3 39  1  0
  4  5  2  0
  4  6  2  0
  4  7  1  0
  7 33  2  0
  7  8  1  0
  8  9  2  0
  8 40  1  0
  9 10  1  0
  9 41  1  0
 10 11  1  0
 10 32  2  0
 11 12  1  0
 12 13  1  0
 12 42  1  1
 12 43  1  0
 13 14  2  0
 13 15  1  0
 15 16  1  0
 15 44  1  0
 16 17  1  0
 16 45  1  6
 16 46  1  0
 17 31  2  0
 17 18  1  0
 18 19  2  0
 18 47  1  0
 19 20  1  0
 19 48  1  0
 20 21  1  0
 20 30  2  0
 21 22  2  0
 21 23  2  0
 21 24  1  1
 24 29  1  0
 24 25  1  0
 25 26  1  0
 25 49  1  1
 25 50  1  0
 26 27  1  0
 26 51  1  1
 26 52  1  0
 27 28  1  0
 28 29  1  0
 28 53  1  6
 28 54  1  0
 29 55  1  6
 29 56  1  0
 30 31  1  0
 30 57  1  0
 31 58  1  0
 32 33  1  0
 32 59  1  0
 33 60  1  0
M  END
$$$$
