ZINC000007063595
     RDKit          3D

 53 54  0  0  0  0  0  0  0  0999 V2000
   -0.0575   -0.1847   -0.7038 C   0  0  1  0  0  0  0  0  0  0  0  0
   -0.5741   -1.5386   -0.2131 C   0  0  1  0  0  0  0  0  0  0  0  0
    0.1867   -1.9493    1.0213 C   0  0  0  0  0  0  0  0  0  0  0  0
    1.3482   -2.6897    0.9016 C   0  0  0  0  0  0  0  0  0  0  0  0
    2.0475   -3.0674    2.0315 C   0  0  0  0  0  0  0  0  0  0  0  0
    1.5837   -2.7027    3.2871 C   0  0  0  0  0  0  0  0  0  0  0  0
    2.2700   -3.0727    4.4002 O   0  0  0  0  0  0  0  0  0  0  0  0
    1.7337   -2.6620    5.6594 C   0  0  1  0  0  0  0  0  0  0  0  0
    2.6223   -3.1598    6.7702 C   0  0  0  0  0  0  0  0  0  0  0  0
    3.6169   -3.8029    6.5091 O   0  0  0  0  0  0  0  0  0  0  0  0
    2.3116   -2.8903    8.0537 N   0  0  0  0  0  0  0  0  0  0  0  0
    3.0812   -3.4332    9.0886 C   0  0  0  0  0  0  0  0  0  0  0  0
    4.4511   -3.5920    8.9273 C   0  0  0  0  0  0  0  0  0  0  0  0
    5.2080   -4.1284    9.9508 C   0  0  0  0  0  0  0  0  0  0  0  0
    4.6027   -4.5074   11.1347 C   0  0  0  0  0  0  0  0  0  0  0  0
    3.2384   -4.3509   11.2983 C   0  0  0  0  0  0  0  0  0  0  0  0
    2.4719   -4.8355   12.8091 S   0  0  1  0  0  0  0  0  0  0  0  0
    1.1063   -5.0837   12.5046 O   0  0  0  0  0  0  0  0  0  0  0  0
    3.3256   -5.8063   13.3988 O   0  0  0  0  0  0  0  0  0  0  0  0
    2.4951   -3.5198   13.8146 N   0  0  0  0  0  0  0  0  0  0  0  0
    1.3789   -2.5711   13.8054 C   0  0  1  0  0  0  0  0  0  0  0  0
    0.3869   -2.9400   14.9103 C   0  0  1  0  0  0  0  0  0  0  0  0
    3.6320   -3.3047   14.7132 C   0  0  1  0  0  0  0  0  0  0  0  0
    4.6341   -2.3577   14.0501 C   0  0  1  0  0  0  0  0  0  0  0  0
    2.4771   -3.8092   10.2814 C   0  0  0  0  0  0  0  0  0  0  0  0
    0.4182   -1.9594    3.4045 C   0  0  0  0  0  0  0  0  0  0  0  0
   -0.2749   -1.5801    2.2712 C   0  0  0  0  0  0  0  0  0  0  0  0
    1.0034   -0.2649   -0.9408 H   0  0  0  0  0  0  0  0  0  0  0  0
   -0.6078    0.1123   -1.5965 H   0  0  0  0  0  0  0  0  0  0  0  0
   -0.2000    0.5630    0.0764 H   0  0  0  0  0  0  0  0  0  0  0  0
   -1.6350   -1.4585    0.0240 H   0  0  0  0  0  0  0  0  0  0  0  0
   -0.4316   -2.2864   -0.9933 H   0  0  0  0  0  0  0  0  0  0  0  0
    1.7089   -2.9734   -0.0761 H   0  0  0  0  0  0  0  0  0  0  0  0
    2.9544   -3.6464    1.9375 H   0  0  0  0  0  0  0  0  0  0  0  0
    1.6825   -1.5738    5.6951 H   0  0  0  0  0  0  0  0  0  0  0  0
    0.7331   -3.0770    5.7809 H   0  0  0  0  0  0  0  0  0  0  0  0
    1.5546   -2.3200    8.2600 H   0  0  0  0  0  0  0  0  0  0  0  0
    4.9243   -3.2969    8.0024 H   0  0  0  0  0  0  0  0  0  0  0  0
    6.2736   -4.2522    9.8260 H   0  0  0  0  0  0  0  0  0  0  0  0
    5.1966   -4.9268   11.9333 H   0  0  0  0  0  0  0  0  0  0  0  0
    1.7570   -1.5635   13.9782 H   0  0  0  0  0  0  0  0  0  0  0  0
    0.8769   -2.6100   12.8387 H   0  0  0  0  0  0  0  0  0  0  0  0
    0.8889   -2.9011   15.8771 H   0  0  0  0  0  0  0  0  0  0  0  0
   -0.4436   -2.2341   14.9035 H   0  0  0  0  0  0  0  0  0  0  0  0
    0.0088   -3.9476   14.7376 H   0  0  0  0  0  0  0  0  0  0  0  0
    3.2794   -2.8653   15.6463 H   0  0  0  0  0  0  0  0  0  0  0  0
    4.1164   -4.2588   14.9211 H   0  0  0  0  0  0  0  0  0  0  0  0
    5.4799   -2.1976   14.7188 H   0  0  0  0  0  0  0  0  0  0  0  0
    4.9867   -2.7971   13.1170 H   0  0  0  0  0  0  0  0  0  0  0  0
    4.1497   -1.4036   13.8423 H   0  0  0  0  0  0  0  0  0  0  0  0
    1.4118   -3.6873   10.4098 H   0  0  0  0  0  0  0  0  0  0  0  0
    0.0549   -1.6745    4.3808 H   0  0  0  0  0  0  0  0  0  0  0  0
   -1.1820   -1.0011    2.3620 H   0  0  0  0  0  0  0  0  0  0  0  0
  1  2  1  0
  1 28  1  6
  1 29  1  0
  1 30  1  0
  2  3  1  0
  2 31  1  1
  2 32  1  0
  3 27  2  0
  3  4  1  0
  4  5  2  0
  4 33  1  0
  5  6  1  0
  5 34  1  0
  6  7  1  0
  6 26  2  0
  7  8  1  0
  8  9  1  0
  8 35  1  6
  8 36  1  0
  9 10  2  0
  9 11  1  0
 11 12  1  0
 11 37  1  0
 12 25  2  0
 12 13  1  0
 13 14  2  0
 13 38  1  0
 14 15  1  0
 14 39  1  0
 15 16  2  0
 15 40  1  0
 16 17  1  0
 16 25  1  0
 17 18  2  0
 17 19  2  0
 17 20  1  1
 20 21  1  0
 20 23  1  0
 21 22  1  0
 21 41  1  1
 21 42  1  0
 22 43  1  1
 22 44  1  0
 22 45  1  0
 23 24  1  0
 23 46  1  1
 23 47  1  0
 24 48  1  1
 24 49  1  0
 24 50  1  0
 25 51  1  0
 26 27  1  0
 26 52  1  0
 27 53  1  0
M  END
$$$$
