ZINC000024864864
     RDKit          3D

 52 54  0  0  1  0  0  0  0  0999 V2000
    0.9468   -1.0453    0.5999 C   0  0  1  0  0  0  0  0  0  0  0  0
   -0.0357   -0.0351    0.0041 C   0  0  2  0  0  0  0  0  0  0  0  0
    0.1244    0.9410    0.4621 H   0  0  0  0  0  0  0  0  0  0  0  0
   -1.4474   -0.4898    0.2713 C   0  0  0  0  0  0  0  0  0  0  0  0
   -2.0364   -1.1558   -0.5537 O   0  0  0  0  0  0  0  0  0  0  0  0
   -2.0555   -0.1564    1.4270 N   0  0  0  0  0  0  0  0  0  0  0  0
   -3.3270   -0.6619    1.7197 C   0  0  0  0  0  0  0  0  0  0  0  0
   -3.6671   -0.9741    3.0295 C   0  0  0  0  0  0  0  0  0  0  0  0
   -4.9229   -1.4729    3.3151 C   0  0  0  0  0  0  0  0  0  0  0  0
   -5.8411   -1.6619    2.2985 C   0  0  0  0  0  0  0  0  0  0  0  0
   -5.5054   -1.3524    0.9933 C   0  0  0  0  0  0  0  0  0  0  0  0
   -4.2535   -0.8470    0.7019 C   0  0  0  0  0  0  0  0  0  0  0  0
    0.1812    0.0627   -1.4455 N   0  0  0  0  0  0  0  0  0  0  0  0
    1.6063    0.2413   -1.7537 C   0  0  1  0  0  0  0  0  0  0  0  0
    1.8121    0.1571   -3.2699 C   0  0  1  0  0  0  0  0  0  0  0  0
    0.9100    1.1212   -3.9180 N   0  0  0  0  0  0  0  0  0  0  0  0
    1.4835    2.2085   -5.0276 S   0  0  1  0  0  0  0  0  0  0  0  0
    0.5656    3.2932   -5.0379 O   0  0  0  0  0  0  0  0  0  0  0  0
    2.8694    2.3657   -4.7561 O   0  0  0  0  0  0  0  0  0  0  0  0
    1.3703    1.4458   -6.6119 C   0  0  0  0  0  0  0  0  0  0  0  0
    2.4272    0.6977   -7.0960 C   0  0  0  0  0  0  0  0  0  0  0  0
    2.3384    0.0994   -8.3390 C   0  0  0  0  0  0  0  0  0  0  0  0
    1.1925    0.2487   -9.0977 C   0  0  0  0  0  0  0  0  0  0  0  0
    1.0959   -0.4032  -10.4529 C   0  0  1  0  0  0  0  0  0  0  0  0
    0.5564   -1.6866  -10.3157 F   0  0  0  0  0  0  0  0  0  0  0  0
    0.2698    0.3638  -11.2815 F   0  0  0  0  0  0  0  0  0  0  0  0
    2.3718   -0.4918  -11.0198 F   0  0  0  0  0  0  0  0  0  0  0  0
    0.1351    0.9957   -8.6130 C   0  0  0  0  0  0  0  0  0  0  0  0
    0.2224    1.5909   -7.3684 C   0  0  0  0  0  0  0  0  0  0  0  0
   -0.5150    1.0936   -3.5549 C   0  0  1  0  0  0  0  0  0  0  0  0
   -0.6291    1.1409   -2.0275 C   0  0  1  0  0  0  0  0  0  0  0  0
    0.7867   -2.0214    0.1419 H   0  0  0  0  0  0  0  0  0  0  0  0
    1.9679   -0.7164    0.4066 H   0  0  0  0  0  0  0  0  0  0  0  0
    0.7859   -1.1178    1.6755 H   0  0  0  0  0  0  0  0  0  0  0  0
   -1.6116    0.4339    2.0558 H   0  0  0  0  0  0  0  0  0  0  0  0
   -2.9501   -0.8274    3.8238 H   0  0  0  0  0  0  0  0  0  0  0  0
   -5.1880   -1.7159    4.3335 H   0  0  0  0  0  0  0  0  0  0  0  0
   -6.8223   -2.0524    2.5244 H   0  0  0  0  0  0  0  0  0  0  0  0
   -6.2244   -1.5018    0.2014 H   0  0  0  0  0  0  0  0  0  0  0  0
   -3.9919   -0.6055   -0.3177 H   0  0  0  0  0  0  0  0  0  0  0  0
    1.9365    1.2163   -1.3954 H   0  0  0  0  0  0  0  0  0  0  0  0
    2.1853   -0.5417   -1.2640 H   0  0  0  0  0  0  0  0  0  0  0  0
    2.8459    0.4022   -3.5132 H   0  0  0  0  0  0  0  0  0  0  0  0
    1.5806   -0.8504   -3.6154 H   0  0  0  0  0  0  0  0  0  0  0  0
    3.3224    0.5810   -6.5032 H   0  0  0  0  0  0  0  0  0  0  0  0
    3.1643   -0.4845   -8.7175 H   0  0  0  0  0  0  0  0  0  0  0  0
   -0.7602    1.1121   -9.2056 H   0  0  0  0  0  0  0  0  0  0  0  0
   -0.6037    2.1744   -6.9898 H   0  0  0  0  0  0  0  0  0  0  0  0
   -1.0197    1.9578   -3.9868 H   0  0  0  0  0  0  0  0  0  0  0  0
   -0.9702    0.1761   -3.9279 H   0  0  0  0  0  0  0  0  0  0  0  0
   -1.6714    1.0103   -1.7365 H   0  0  0  0  0  0  0  0  0  0  0  0
   -0.2678    2.1034   -1.6654 H   0  0  0  0  0  0  0  0  0  0  0  0
  1  2  1  0
  1 32  1  6
  1 33  1  0
  1 34  1  0
  2  3  1  1
  2  4  1  0
  2 13  1  0
  4  5  2  0
  4  6  1  0
  6  7  1  0
  6 35  1  0
  7 12  2  0
  7  8  1  0
  8  9  2  0
  8 36  1  0
  9 10  1  0
  9 37  1  0
 10 11  2  0
 10 38  1  0
 11 12  1  0
 11 39  1  0
 12 40  1  0
 13 31  1  0
 13 14  1  0
 14 15  1  0
 14 41  1  1
 14 42  1  0
 15 16  1  0
 15 43  1  1
 15 44  1  0
 17 16  1  1
 16 30  1  0
 17 18  2  0
 17 19  2  0
 17 20  1  0
 20 29  2  0
 20 21  1  0
 21 22  2  0
 21 45  1  0
 22 23  1  0
 22 46  1  0
 23 24  1  0
 23 28  2  0
 24 25  1  1
 24 26  1  0
 24 27  1  0
 28 29  1  0
 28 47  1  0
 29 48  1  0
 30 31  1  0
 30 49  1  6
 30 50  1  0
 31 51  1  6
 31 52  1  0
M  END
$$$$
