ZINC000584887901
     RDKit          3D

 40 40  0  0  1  0  0  0  0  0999 V2000
    0.4825    1.0920    0.3335 C   0  0  1  0  0  0  0  0  0  0  0  0
    0.1094   -0.3870    0.2139 C   0  0  1  0  0  0  0  0  0  0  0  0
   -1.4127   -0.5248    0.1415 C   0  0  2  0  0  0  0  0  0  0  0  0
   -1.7932    0.0772   -0.6836 H   0  0  0  0  0  0  0  0  0  0  0  0
   -1.9907   -0.0723    1.3675 O   0  0  0  0  0  0  0  0  0  0  0  0
   -2.7679    1.1200    1.2385 C   0  0  1  0  0  0  0  0  0  0  0  0
   -1.7761   -1.9702   -0.0818 C   0  0  0  0  0  0  0  0  0  0  0  0
   -2.3852   -2.5810    0.7707 O   0  0  0  0  0  0  0  0  0  0  0  0
   -1.4244   -2.5840   -1.2290 N   0  0  0  0  0  0  0  0  0  0  0  0
   -0.6886   -1.8461   -2.2588 C   0  0  1  0  0  0  0  0  0  0  0  0
   -1.7777   -3.9891   -1.4461 C   0  0  1  0  0  0  0  0  0  0  0  0
   -3.1274   -4.0705   -2.1115 C   0  0  0  0  0  0  0  0  0  0  0  0
   -3.2052   -4.1844   -3.4865 C   0  0  0  0  0  0  0  0  0  0  0  0
   -4.4520   -4.2591   -4.0889 C   0  0  0  0  0  0  0  0  0  0  0  0
   -4.5795   -4.3844   -5.5852 C   0  0  1  0  0  0  0  0  0  0  0  0
   -5.5783   -4.2164   -3.2818 C   0  0  0  0  0  0  0  0  0  0  0  0
   -5.4223   -4.1014   -1.9132 C   0  0  0  0  0  0  0  0  0  0  0  0
   -6.6397   -4.0545   -1.0262 C   0  0  1  0  0  0  0  0  0  0  0  0
   -4.2205   -4.0379   -1.3744 N   0  0  0  0  0  0  0  0  0  0  0  0
    1.5677    1.1937    0.3381 H   0  0  0  0  0  0  0  0  0  0  0  0
    0.0698    1.6404   -0.5133 H   0  0  0  0  0  0  0  0  0  0  0  0
    0.0758    1.4954    1.2608 H   0  0  0  0  0  0  0  0  0  0  0  0
    0.5552   -0.8022   -0.6900 H   0  0  0  0  0  0  0  0  0  0  0  0
    0.4822   -0.9273    1.0841 H   0  0  0  0  0  0  0  0  0  0  0  0
   -2.1216    1.9439    0.9359 H   0  0  0  0  0  0  0  0  0  0  0  0
   -3.5416    0.9696    0.4856 H   0  0  0  0  0  0  0  0  0  0  0  0
   -3.2332    1.3558    2.1956 H   0  0  0  0  0  0  0  0  0  0  0  0
    0.3825   -1.9526   -2.0868 H   0  0  0  0  0  0  0  0  0  0  0  0
   -0.9402   -2.2452   -3.2414 H   0  0  0  0  0  0  0  0  0  0  0  0
   -0.9606   -0.7915   -2.2144 H   0  0  0  0  0  0  0  0  0  0  0  0
   -1.0289   -4.4575   -2.0848 H   0  0  0  0  0  0  0  0  0  0  0  0
   -1.8132   -4.5071   -0.4878 H   0  0  0  0  0  0  0  0  0  0  0  0
   -2.3063   -4.2144   -4.0844 H   0  0  0  0  0  0  0  0  0  0  0  0
   -4.5894   -5.4386   -5.8621 H   0  0  0  0  0  0  0  0  0  0  0  0
   -5.5072   -3.9144   -5.9115 H   0  0  0  0  0  0  0  0  0  0  0  0
   -3.7340   -3.8908   -6.0645 H   0  0  0  0  0  0  0  0  0  0  0  0
   -6.5652   -4.2718   -3.7169 H   0  0  0  0  0  0  0  0  0  0  0  0
   -6.9118   -5.0672   -0.7287 H   0  0  0  0  0  0  0  0  0  0  0  0
   -6.4196   -3.4618   -0.1383 H   0  0  0  0  0  0  0  0  0  0  0  0
   -7.4681   -3.6005   -1.5699 H   0  0  0  0  0  0  0  0  0  0  0  0
  1  2  1  0
  1 20  1  1
  1 21  1  0
  1 22  1  0
  2  3  1  0
  2 23  1  6
  2 24  1  0
  3  4  1  6
  3  5  1  0
  3  7  1  0
  5  6  1  0
  6 25  1  6
  6 26  1  0
  6 27  1  0
  7  8  2  0
  7  9  1  0
  9 10  1  0
  9 11  1  0
 10 28  1  1
 10 29  1  0
 10 30  1  0
 11 12  1  0
 11 31  1  6
 11 32  1  0
 12 19  2  0
 12 13  1  0
 13 14  2  0
 13 33  1  0
 14 15  1  0
 14 16  1  0
 15 34  1  1
 15 35  1  0
 15 36  1  0
 16 17  2  0
 16 37  1  0
 17 18  1  0
 17 19  1  0
 18 38  1  1
 18 39  1  0
 18 40  1  0
M  END
$$$$
