ZINC000032550567
     RDKit          3D

 52 54  0  0  0  0  0  0  0  0999 V2000
    0.0014    1.4875   -0.0142 C   0  0  1  0  0  0  0  0  0  0  0  0
    0.0268   -0.0423   -0.0147 C   0  0  1  0  0  0  0  0  0  0  0  0
    0.7515   -0.5330    1.2121 C   0  0  0  0  0  0  0  0  0  0  0  0
    2.1184   -0.7353    1.1728 C   0  0  0  0  0  0  0  0  0  0  0  0
    2.7831   -1.1855    2.2981 C   0  0  0  0  0  0  0  0  0  0  0  0
    2.0810   -1.4329    3.4629 C   0  0  0  0  0  0  0  0  0  0  0  0
    2.9283   -2.0072    4.8971 S   0  0  1  0  0  0  0  0  0  0  0  0
    1.9603   -2.6756    5.6942 O   0  0  0  0  0  0  0  0  0  0  0  0
    4.1200   -2.6295    4.4369 O   0  0  0  0  0  0  0  0  0  0  0  0
    3.3996   -0.6718    5.7557 N   0  0  0  0  0  0  0  0  0  0  0  0
    2.5118   -0.1046    6.7737 C   0  0  1  0  0  0  0  0  0  0  0  0
    2.8847   -0.6676    8.1466 C   0  0  1  0  0  0  0  0  0  0  0  0
    4.7043   -0.0578    5.4972 C   0  0  1  0  0  0  0  0  0  0  0  0
    4.5410    1.0748    4.5166 C   0  0  0  0  0  0  0  0  0  0  0  0
    3.4428    1.3427    4.0768 O   0  0  0  0  0  0  0  0  0  0  0  0
    5.6153    1.7901    4.1282 N   0  0  0  0  0  0  0  0  0  0  0  0
    5.4803    2.7787    3.1448 C   0  0  0  0  0  0  0  0  0  0  0  0
    6.5059    2.9983    2.2356 C   0  0  0  0  0  0  0  0  0  0  0  0
    6.3741    3.9747    1.2668 C   0  0  0  0  0  0  0  0  0  0  0  0
    5.2182    4.7378    1.1994 C   0  0  0  0  0  0  0  0  0  0  0  0
    5.1098    5.7015    0.2430 O   0  0  0  0  0  0  0  0  0  0  0  0
    3.7930    6.1930   -0.0292 C   0  0  1  0  0  0  0  0  0  0  0  0
    3.0990    6.4758    1.3100 C   0  0  1  0  0  0  0  0  0  0  0  0
    3.0437    5.2532    2.0530 O   0  0  0  0  0  0  0  0  0  0  0  0
    4.1877    4.5176    2.1065 C   0  0  0  0  0  0  0  0  0  0  0  0
    4.3187    3.5353    3.0755 C   0  0  0  0  0  0  0  0  0  0  0  0
    0.7143   -1.2292    3.5027 C   0  0  0  0  0  0  0  0  0  0  0  0
    0.0502   -0.7754    2.3785 C   0  0  0  0  0  0  0  0  0  0  0  0
    1.0228    1.8679   -0.0192 H   0  0  0  0  0  0  0  0  0  0  0  0
   -0.5228    1.8425   -0.9016 H   0  0  0  0  0  0  0  0  0  0  0  0
   -0.5141    1.8421    0.8784 H   0  0  0  0  0  0  0  0  0  0  0  0
   -0.9947   -0.4226   -0.0097 H   0  0  0  0  0  0  0  0  0  0  0  0
    0.5422   -0.3968   -0.9073 H   0  0  0  0  0  0  0  0  0  0  0  0
    2.6669   -0.5421    0.2627 H   0  0  0  0  0  0  0  0  0  0  0  0
    3.8509   -1.3442    2.2672 H   0  0  0  0  0  0  0  0  0  0  0  0
    2.6180    0.9802    6.7848 H   0  0  0  0  0  0  0  0  0  0  0  0
    1.4793   -0.3662    6.5419 H   0  0  0  0  0  0  0  0  0  0  0  0
    2.2241   -0.2456    8.9040 H   0  0  0  0  0  0  0  0  0  0  0  0
    2.7784   -1.7524    8.1355 H   0  0  0  0  0  0  0  0  0  0  0  0
    3.9171   -0.4060    8.3783 H   0  0  0  0  0  0  0  0  0  0  0  0
    5.1164    0.3262    6.4304 H   0  0  0  0  0  0  0  0  0  0  0  0
    5.3810   -0.8040    5.0810 H   0  0  0  0  0  0  0  0  0  0  0  0
    6.4819    1.6203    4.5296 H   0  0  0  0  0  0  0  0  0  0  0  0
    7.4075    2.4059    2.2856 H   0  0  0  0  0  0  0  0  0  0  0  0
    7.1735    4.1443    0.5607 H   0  0  0  0  0  0  0  0  0  0  0  0
    3.8569    7.1123   -0.6113 H   0  0  0  0  0  0  0  0  0  0  0  0
    3.2286    5.4441   -0.5847 H   0  0  0  0  0  0  0  0  0  0  0  0
    3.6669    7.2199    1.8685 H   0  0  0  0  0  0  0  0  0  0  0  0
    2.0885    6.8427    1.1302 H   0  0  0  0  0  0  0  0  0  0  0  0
    3.5183    3.3614    3.7795 H   0  0  0  0  0  0  0  0  0  0  0  0
    0.1659   -1.4221    4.4128 H   0  0  0  0  0  0  0  0  0  0  0  0
   -1.0176   -0.6163    2.4095 H   0  0  0  0  0  0  0  0  0  0  0  0
  1  2  1  0
  1 29  1  6
  1 30  1  0
  1 31  1  0
  2  3  1  0
  2 32  1  1
  2 33  1  0
  3 28  2  0
  3  4  1  0
  4  5  2  0
  4 34  1  0
  5  6  1  0
  5 35  1  0
  6  7  1  0
  6 27  2  0
  7  8  2  0
  7  9  2  0
  7 10  1  1
 10 11  1  0
 10 13  1  0
 11 12  1  0
 11 36  1  1
 11 37  1  0
 12 38  1  1
 12 39  1  0
 12 40  1  0
 13 14  1  0
 13 41  1  1
 13 42  1  0
 14 15  2  0
 14 16  1  0
 16 17  1  0
 16 43  1  0
 17 26  2  0
 17 18  1  0
 18 19  2  0
 18 44  1  0
 19 20  1  0
 19 45  1  0
 20 25  2  0
 20 21  1  0
 21 22  1  0
 22 23  1  0
 22 46  1  6
 22 47  1  0
 23 24  1  0
 23 48  1  1
 23 49  1  0
 24 25  1  0
 25 26  1  0
 26 50  1  0
 27 28  1  0
 27 51  1  0
 28 52  1  0
M  END
$$$$
