ZINC000002960121
     RDKit          3D

 53 54  0  0  1  0  0  0  0  0999 V2000
   -0.0187    1.5258    0.0104 C   0  0  1  0  0  0  0  0  0  0  0  0
    0.0021   -0.0041    0.0020 C   0  0  1  0  0  0  0  0  0  0  0  0
   -1.4333   -0.5336    0.0129 C   0  0  1  0  0  0  0  0  0  0  0  0
   -1.9862   -0.1019   -0.8214 H   0  0  0  0  0  0  0  0  0  0  0  0
   -1.4157   -2.0577   -0.1212 C   0  0  1  0  0  0  0  0  0  0  0  0
   -2.0815   -0.1618    1.2729 N   0  0  0  0  0  0  0  0  0  0  0  0
   -3.4235   -0.0535    1.3341 C   0  0  0  0  0  0  0  0  0  0  0  0
   -4.0945   -0.2639    0.3460 O   0  0  0  0  0  0  0  0  0  0  0  0
   -4.0903    0.3291    2.6303 C   0  0  1  0  0  0  0  0  0  0  0  0
   -5.5416    0.3788    2.4368 N   0  0  0  0  0  0  0  0  0  0  0  0
   -6.3382   -0.8454    2.5510 C   0  0  1  0  0  0  0  0  0  0  0  0
   -6.6846   -1.0862    3.9978 C   0  0  0  0  0  0  0  0  0  0  0  0
   -5.8378   -1.8319    4.7964 C   0  0  0  0  0  0  0  0  0  0  0  0
   -6.1555   -2.0528    6.1235 C   0  0  0  0  0  0  0  0  0  0  0  0
   -7.3198   -1.5275    6.6521 C   0  0  0  0  0  0  0  0  0  0  0  0
   -8.1662   -0.7810    5.8537 C   0  0  0  0  0  0  0  0  0  0  0  0
   -7.8463   -0.5566    4.5277 C   0  0  0  0  0  0  0  0  0  0  0  0
   -6.2817    1.8188    2.0890 S   0  0  1  0  0  0  0  0  0  0  0  0
   -7.6359    1.6829    2.4977 O   0  0  0  0  0  0  0  0  0  0  0  0
   -5.4217    2.8398    2.5758 O   0  0  0  0  0  0  0  0  0  0  0  0
   -6.3055    1.9826    0.3348 C   0  0  0  0  0  0  0  0  0  0  0  0
   -5.2508    2.5963   -0.3154 C   0  0  0  0  0  0  0  0  0  0  0  0
   -5.2670    2.7260   -1.6906 C   0  0  0  0  0  0  0  0  0  0  0  0
   -6.3426    2.2395   -2.4194 C   0  0  0  0  0  0  0  0  0  0  0  0
   -6.3607    2.3655   -3.7724 O   0  0  0  0  0  0  0  0  0  0  0  0
   -7.5000    1.8415   -4.4576 C   0  0  1  0  0  0  0  0  0  0  0  0
   -7.3994    1.6238   -1.7647 C   0  0  0  0  0  0  0  0  0  0  0  0
   -7.3762    1.4923   -0.3897 C   0  0  0  0  0  0  0  0  0  0  0  0
    1.0039    1.9031    0.0027 H   0  0  0  0  0  0  0  0  0  0  0  0
   -0.5459    1.8868   -0.8726 H   0  0  0  0  0  0  0  0  0  0  0  0
   -0.5289    1.8773    0.9072 H   0  0  0  0  0  0  0  0  0  0  0  0
    0.5123   -0.3556   -0.8948 H   0  0  0  0  0  0  0  0  0  0  0  0
    0.5293   -0.3651    0.8851 H   0  0  0  0  0  0  0  0  0  0  0  0
   -2.4383   -2.4349   -0.1135 H   0  0  0  0  0  0  0  0  0  0  0  0
   -0.9334   -2.3344   -1.0587 H   0  0  0  0  0  0  0  0  0  0  0  0
   -0.8628   -2.4894    0.7131 H   0  0  0  0  0  0  0  0  0  0  0  0
   -1.5448    0.0065    2.0632 H   0  0  0  0  0  0  0  0  0  0  0  0
   -3.8507   -0.4106    3.3943 H   0  0  0  0  0  0  0  0  0  0  0  0
   -3.7323    1.3084    2.9478 H   0  0  0  0  0  0  0  0  0  0  0  0
   -7.2547   -0.7380    1.9710 H   0  0  0  0  0  0  0  0  0  0  0  0
   -5.7637   -1.6896    2.1696 H   0  0  0  0  0  0  0  0  0  0  0  0
   -4.9281   -2.2423    4.3834 H   0  0  0  0  0  0  0  0  0  0  0  0
   -5.4943   -2.6360    6.7472 H   0  0  0  0  0  0  0  0  0  0  0  0
   -7.5684   -1.7007    7.6887 H   0  0  0  0  0  0  0  0  0  0  0  0
   -9.0760   -0.3710    6.2666 H   0  0  0  0  0  0  0  0  0  0  0  0
   -8.5075    0.0266    3.9040 H   0  0  0  0  0  0  0  0  0  0  0  0
   -4.4137    2.9749    0.2524 H   0  0  0  0  0  0  0  0  0  0  0  0
   -4.4433    3.2061   -2.1980 H   0  0  0  0  0  0  0  0  0  0  0  0
   -7.3876    2.0073   -5.5291 H   0  0  0  0  0  0  0  0  0  0  0  0
   -7.5817    0.7724   -4.2619 H   0  0  0  0  0  0  0  0  0  0  0  0
   -8.3998    2.3453   -4.1045 H   0  0  0  0  0  0  0  0  0  0  0  0
   -8.2380    1.2446   -2.3298 H   0  0  0  0  0  0  0  0  0  0  0  0
   -8.1985    1.0127    0.1204 H   0  0  0  0  0  0  0  0  0  0  0  0
  1  2  1  0
  1 29  1  6
  1 30  1  0
  1 31  1  0
  2  3  1  0
  2 32  1  6
  2 33  1  0
  3  4  1  6
  3  5  1  0
  3  6  1  0
  5 34  1  6
  5 35  1  0
  5 36  1  0
  6  7  1  0
  6 37  1  0
  7  8  2  0
  7  9  1  0
  9 10  1  0
  9 38  1  1
  9 39  1  0
 10 11  1  0
 18 10  1  6
 11 12  1  0
 11 40  1  6
 11 41  1  0
 12 17  2  0
 12 13  1  0
 13 14  2  0
 13 42  1  0
 14 15  1  0
 14 43  1  0
 15 16  2  0
 15 44  1  0
 16 17  1  0
 16 45  1  0
 17 46  1  0
 18 19  2  0
 18 20  2  0
 18 21  1  0
 21 28  2  0
 21 22  1  0
 22 23  2  0
 22 47  1  0
 23 24  1  0
 23 48  1  0
 24 25  1  0
 24 27  2  0
 25 26  1  0
 26 49  1  6
 26 50  1  0
 26 51  1  0
 27 28  1  0
 27 52  1  0
 28 53  1  0
M  END
$$$$
