ZINC000409020949
     RDKit          3D

 62 64  0  0  0  0  0  0  0  0999 V2000
   -0.0184    1.5028    0.0103 C   0  0  1  0  0  0  0  0  0  0  0  0
    0.0021   -0.0041    0.0020 C   0  0  0  0  0  0  0  0  0  0  0  0
    0.0057   -0.6887   -1.1989 C   0  0  0  0  0  0  0  0  0  0  0  0
    0.0245   -2.0709   -1.2065 C   0  0  0  0  0  0  0  0  0  0  0  0
    0.0400   -2.7685   -0.0132 C   0  0  0  0  0  0  0  0  0  0  0  0
    0.0633   -4.5303   -0.0229 S   0  0  1  0  0  0  0  0  0  0  0  0
   -0.4690   -4.9455    1.2275 O   0  0  0  0  0  0  0  0  0  0  0  0
   -0.4824   -4.9319   -1.2719 O   0  0  0  0  0  0  0  0  0  0  0  0
    1.6514   -4.9995   -0.0340 N   0  0  0  0  0  0  0  0  0  0  0  0
    2.3607   -5.2139    1.2298 C   0  0  1  0  0  0  0  0  0  0  0  0
    2.3045   -6.6971    1.6009 C   0  0  1  0  0  0  0  0  0  0  0  0
    3.0341   -6.9177    2.9009 C   0  0  0  0  0  0  0  0  0  0  0  0
    4.3868   -7.2026    2.8947 C   0  0  0  0  0  0  0  0  0  0  0  0
    5.0560   -7.4049    4.0872 C   0  0  0  0  0  0  0  0  0  0  0  0
    4.3727   -7.3219    5.2860 C   0  0  0  0  0  0  0  0  0  0  0  0
    3.0203   -7.0361    5.2923 C   0  0  0  0  0  0  0  0  0  0  0  0
    2.3519   -6.8295    4.1000 C   0  0  0  0  0  0  0  0  0  0  0  0
    2.3471   -5.2001   -1.3075 C   0  0  1  0  0  0  0  0  0  0  0  0
    3.0899   -3.9422   -1.6778 C   0  0  0  0  0  0  0  0  0  0  0  0
    3.0428   -2.9735   -0.9496 O   0  0  0  0  0  0  0  0  0  0  0  0
    3.8065   -3.8937   -2.8182 N   0  0  0  0  0  0  0  0  0  0  0  0
    4.5286   -2.6709   -3.1782 C   0  0  1  0  0  0  0  0  0  0  0  0
    5.8834   -2.6727   -2.5236 C   0  0  1  0  0  0  0  0  0  0  0  0
    6.3477   -1.2586   -2.1255 C   0  0  1  0  0  0  0  0  0  0  0  0
    6.0357   -0.2020   -3.2026 C   0  0  1  0  0  0  0  0  0  0  0  0
    6.3132   -0.7000   -4.5951 C   0  0  1  0  0  0  0  0  0  0  0  0
    5.0050   -1.2685   -5.1819 C   0  0  1  0  0  0  0  0  0  0  0  0
    4.7232   -2.6152   -4.7073 C   0  0  1  0  0  0  0  0  0  0  0  0
    0.0378   -2.0839    1.1877 C   0  0  0  0  0  0  0  0  0  0  0  0
    0.0229   -0.7016    1.1953 C   0  0  0  0  0  0  0  0  0  0  0  0
    1.0042    1.8801    0.0026 H   0  0  0  0  0  0  0  0  0  0  0  0
   -0.5455    1.8639   -0.8728 H   0  0  0  0  0  0  0  0  0  0  0  0
   -0.5286    1.8543    0.9071 H   0  0  0  0  0  0  0  0  0  0  0  0
   -0.0064   -0.1436   -2.1312 H   0  0  0  0  0  0  0  0  0  0  0  0
    0.0266   -2.6057   -2.1448 H   0  0  0  0  0  0  0  0  0  0  0  0
    3.4005   -4.9060    1.1197 H   0  0  0  0  0  0  0  0  0  0  0  0
    1.8886   -4.6246    2.0159 H   0  0  0  0  0  0  0  0  0  0  0  0
    1.2647   -7.0050    1.7111 H   0  0  0  0  0  0  0  0  0  0  0  0
    2.7766   -7.2865    0.8148 H   0  0  0  0  0  0  0  0  0  0  0  0
    4.9206   -7.2675    1.9581 H   0  0  0  0  0  0  0  0  0  0  0  0
    6.1127   -7.6282    4.0822 H   0  0  0  0  0  0  0  0  0  0  0  0
    4.8955   -7.4807    6.2176 H   0  0  0  0  0  0  0  0  0  0  0  0
    2.4863   -6.9716    6.2288 H   0  0  0  0  0  0  0  0  0  0  0  0
    1.2953   -6.6062    4.1049 H   0  0  0  0  0  0  0  0  0  0  0  0
    3.0540   -6.0240   -1.2095 H   0  0  0  0  0  0  0  0  0  0  0  0
    1.6206   -5.4353   -2.0853 H   0  0  0  0  0  0  0  0  0  0  0  0
    3.8442   -4.6685   -3.4007 H   0  0  0  0  0  0  0  0  0  0  0  0
    3.9610   -1.8004   -2.8494 H   0  0  0  0  0  0  0  0  0  0  0  0
    5.8424   -3.2950   -1.6296 H   0  0  0  0  0  0  0  0  0  0  0  0
    6.6089   -3.1003   -3.2156 H   0  0  0  0  0  0  0  0  0  0  0  0
    5.8502   -0.9732   -1.1986 H   0  0  0  0  0  0  0  0  0  0  0  0
    7.4238   -1.2774   -1.9529 H   0  0  0  0  0  0  0  0  0  0  0  0
    4.9841    0.0753   -3.1303 H   0  0  0  0  0  0  0  0  0  0  0  0
    6.6452    0.6822   -3.0162 H   0  0  0  0  0  0  0  0  0  0  0  0
    6.6650    0.1243   -5.2155 H   0  0  0  0  0  0  0  0  0  0  0  0
    7.0697   -1.4840   -4.5596 H   0  0  0  0  0  0  0  0  0  0  0  0
    4.1789   -0.6152   -4.9010 H   0  0  0  0  0  0  0  0  0  0  0  0
    5.0843   -1.2868   -6.2689 H   0  0  0  0  0  0  0  0  0  0  0  0
    5.5528   -3.2669   -4.9815 H   0  0  0  0  0  0  0  0  0  0  0  0
    3.8167   -2.9779   -5.1919 H   0  0  0  0  0  0  0  0  0  0  0  0
    0.0503   -2.6289    2.1200 H   0  0  0  0  0  0  0  0  0  0  0  0
    0.0211   -0.1667    2.1335 H   0  0  0  0  0  0  0  0  0  0  0  0
  1  2  1  0
  1 31  1  6
  1 32  1  0
  1 33  1  0
  2 30  2  0
  2  3  1  0
  3  4  2  0
  3 34  1  0
  4  5  1  0
  4 35  1  0
  5  6  1  0
  5 29  2  0
  6  7  2  0
  6  8  2  0
  6  9  1  6
  9 10  1  0
  9 18  1  0
 10 11  1  0
 10 36  1  6
 10 37  1  0
 11 12  1  0
 11 38  1  1
 11 39  1  0
 12 17  2  0
 12 13  1  0
 13 14  2  0
 13 40  1  0
 14 15  1  0
 14 41  1  0
 15 16  2  0
 15 42  1  0
 16 17  1  0
 16 43  1  0
 17 44  1  0
 18 19  1  0
 18 45  1  1
 18 46  1  0
 19 20  2  0
 19 21  1  0
 21 22  1  0
 21 47  1  0
 22 28  1  0
 22 23  1  0
 22 48  1  1
 23 24  1  0
 23 49  1  1
 23 50  1  0
 24 25  1  0
 24 51  1  1
 24 52  1  0
 25 26  1  0
 25 53  1  6
 25 54  1  0
 26 27  1  0
 26 55  1  6
 26 56  1  0
 27 28  1  0
 27 57  1  6
 27 58  1  0
 28 59  1  1
 28 60  1  0
 29 30  1  0
 29 61  1  0
 30 62  1  0
M  END
$$$$
