ZINC000032999966
     RDKit          3D

 53 55  0  0  1  0  0  0  0  0999 V2000
   -0.0187    1.5258    0.0104 C   0  0  1  0  0  0  0  0  0  0  0  0
    0.0021   -0.0041    0.0020 C   0  0  2  0  0  0  0  0  0  0  0  0
    0.5123   -0.3556   -0.8948 H   0  0  0  0  0  0  0  0  0  0  0  0
   -1.4333   -0.5336    0.0129 C   0  0  1  0  0  0  0  0  0  0  0  0
   -1.4157   -2.0577   -0.1212 C   0  0  1  0  0  0  0  0  0  0  0  0
   -2.8295   -2.5793   -0.1105 C   0  0  0  0  0  0  0  0  0  0  0  0
   -3.4324   -2.9175    1.0866 C   0  0  0  0  0  0  0  0  0  0  0  0
   -4.7292   -3.3959    1.0964 C   0  0  0  0  0  0  0  0  0  0  0  0
   -5.4233   -3.5358   -0.0908 C   0  0  0  0  0  0  0  0  0  0  0  0
   -4.8208   -3.1967   -1.2878 C   0  0  0  0  0  0  0  0  0  0  0  0
   -3.5254   -2.7142   -1.2973 C   0  0  0  0  0  0  0  0  0  0  0  0
    0.7106   -0.4894    1.1889 N   0  0  0  0  0  0  0  0  0  0  0  0
    2.0538   -0.5998    1.1737 C   0  0  0  0  0  0  0  0  0  0  0  0
    2.6758   -0.2974    0.1774 O   0  0  0  0  0  0  0  0  0  0  0  0
    2.7826   -1.0990    2.3946 C   0  0  1  0  0  0  0  0  0  0  0  0
    4.2638   -1.1281    2.1185 C   0  0  0  0  0  0  0  0  0  0  0  0
    5.1088   -0.1218    2.3481 C   0  0  0  0  0  0  0  0  0  0  0  0
    6.4273   -0.3798    2.0150 C   0  0  0  0  0  0  0  0  0  0  0  0
    6.6532   -1.5955    1.5148 C   0  0  0  0  0  0  0  0  0  0  0  0
    8.2243   -2.2078    1.0036 S   0  0  1  0  0  0  0  0  0  0  0  0
    7.9656   -3.2448    0.0672 O   0  0  0  0  0  0  0  0  0  0  0  0
    9.0200   -1.0695    0.7026 O   0  0  0  0  0  0  0  0  0  0  0  0
    8.9211   -2.9302    2.3208 N   0  0  0  0  0  0  0  0  0  0  0  0
    9.7805   -2.2628    3.3095 C   0  0  1  0  0  0  0  0  0  0  0  0
   10.2147   -3.3315    4.3347 C   0  0  1  0  0  0  0  0  0  0  0  0
   10.0369   -4.6582    3.5502 C   0  0  1  0  0  0  0  0  0  0  0  0
    8.7773   -4.3477    2.6996 C   0  0  1  0  0  0  0  0  0  0  0  0
    5.1442   -2.4968    1.4512 S   0  0  0  0  0  0  0  0  0  0  0  0
    1.0039    1.9031    0.0027 H   0  0  0  0  0  0  0  0  0  0  0  0
   -0.5459    1.8868   -0.8726 H   0  0  0  0  0  0  0  0  0  0  0  0
   -0.5289    1.8773    0.9072 H   0  0  0  0  0  0  0  0  0  0  0  0
   -1.9156   -0.2570    0.9504 H   0  0  0  0  0  0  0  0  0  0  0  0
   -1.9862   -0.1019   -0.8214 H   0  0  0  0  0  0  0  0  0  0  0  0
   -0.9334   -2.3344   -1.0587 H   0  0  0  0  0  0  0  0  0  0  0  0
   -0.8628   -2.4894    0.7131 H   0  0  0  0  0  0  0  0  0  0  0  0
   -2.8901   -2.8082    2.0141 H   0  0  0  0  0  0  0  0  0  0  0  0
   -5.2000   -3.6608    2.0316 H   0  0  0  0  0  0  0  0  0  0  0  0
   -6.4363   -3.9103   -0.0832 H   0  0  0  0  0  0  0  0  0  0  0  0
   -5.3630   -3.3063   -2.2154 H   0  0  0  0  0  0  0  0  0  0  0  0
   -3.0546   -2.4493   -2.2324 H   0  0  0  0  0  0  0  0  0  0  0  0
    0.2131   -0.7312    1.9857 H   0  0  0  0  0  0  0  0  0  0  0  0
    2.5826   -0.4337    3.2345 H   0  0  0  0  0  0  0  0  0  0  0  0
    2.4385   -2.1044    2.6374 H   0  0  0  0  0  0  0  0  0  0  0  0
    4.7883    0.8228    2.7622 H   0  0  0  0  0  0  0  0  0  0  0  0
    7.2136    0.3483    2.1495 H   0  0  0  0  0  0  0  0  0  0  0  0
   10.6577   -1.8445    2.8160 H   0  0  0  0  0  0  0  0  0  0  0  0
    9.2229   -1.4723    3.8118 H   0  0  0  0  0  0  0  0  0  0  0  0
   11.2567   -3.1898    4.6216 H   0  0  0  0  0  0  0  0  0  0  0  0
    9.5663   -3.3115    5.2107 H   0  0  0  0  0  0  0  0  0  0  0  0
   10.9013   -4.8562    2.9164 H   0  0  0  0  0  0  0  0  0  0  0  0
    9.8526   -5.4914    4.2283 H   0  0  0  0  0  0  0  0  0  0  0  0
    7.8739   -4.4980    3.2907 H   0  0  0  0  0  0  0  0  0  0  0  0
    8.7572   -4.9749    1.8084 H   0  0  0  0  0  0  0  0  0  0  0  0
  1  2  1  0
  1 29  1  6
  1 30  1  0
  1 31  1  0
  2  3  1  6
  2  4  1  0
  2 12  1  0
  4  5  1  0
  4 32  1  1
  4 33  1  0
  5  6  1  0
  5 34  1  6
  5 35  1  0
  6 11  2  0
  6  7  1  0
  7  8  2  0
  7 36  1  0
  8  9  1  0
  8 37  1  0
  9 10  2  0
  9 38  1  0
 10 11  1  0
 10 39  1  0
 11 40  1  0
 12 13  1  0
 12 41  1  0
 13 14  2  0
 13 15  1  0
 15 16  1  0
 15 42  1  1
 15 43  1  0
 16 28  1  0
 16 17  2  0
 17 18  1  0
 17 44  1  0
 18 19  2  0
 18 45  1  0
 19 20  1  0
 19 28  1  0
 20 21  2  0
 20 22  2  0
 20 23  1  1
 23 27  1  0
 23 24  1  0
 24 25  1  0
 24 46  1  6
 24 47  1  0
 25 26  1  0
 25 48  1  1
 25 49  1  0
 26 27  1  0
 26 50  1  6
 26 51  1  0
 27 52  1  1
 27 53  1  0
M  END
$$$$
