ZINC000408784474
     RDKit          3D

 61 62  0  0  0  0  0  0  0  0999 V2000
   -0.0173    1.4248    0.0099 C   0  0  1  0  0  0  0  0  0  0  0  0
    0.0021   -0.0041    0.0020 O   0  0  0  0  0  0  0  0  0  0  0  0
   -1.2953   -0.6030    0.0112 C   0  0  1  0  0  0  0  0  0  0  0  0
   -1.1538   -2.1264    0.0017 C   0  0  1  0  0  0  0  0  0  0  0  0
   -2.5429   -2.7677    0.0115 C   0  0  1  0  0  0  0  0  0  0  0  0
   -2.4075   -4.2264    0.0023 N   0  0  0  0  0  0  0  0  0  0  0  0
   -3.5073   -5.0054    0.0087 C   0  0  0  0  0  0  0  0  0  0  0  0
   -4.6092   -4.4987    0.0219 O   0  0  0  0  0  0  0  0  0  0  0  0
   -3.3680   -6.5059   -0.0007 C   0  0  1  0  0  0  0  0  0  0  0  0
   -4.6980   -7.1199    0.0087 N   0  0  0  0  0  0  0  0  0  0  0  0
   -5.4215   -7.3197   -1.2495 C   0  0  1  0  0  0  0  0  0  0  0  0
   -4.9787   -8.6374   -1.8887 C   0  0  1  0  0  0  0  0  0  0  0  0
   -5.7228   -8.8429   -3.1829 C   0  0  0  0  0  0  0  0  0  0  0  0
   -6.9337   -9.5099   -3.1855 C   0  0  0  0  0  0  0  0  0  0  0  0
   -7.6163   -9.6984   -4.3727 C   0  0  0  0  0  0  0  0  0  0  0  0
   -7.0883   -9.2197   -5.5571 C   0  0  0  0  0  0  0  0  0  0  0  0
   -5.8779   -8.5520   -5.5544 C   0  0  0  0  0  0  0  0  0  0  0  0
   -5.1974   -8.3596   -4.3666 C   0  0  0  0  0  0  0  0  0  0  0  0
   -5.3838   -7.5881    1.4415 S   0  0  1  0  0  0  0  0  0  0  0  0
   -6.3345   -8.5945    1.1214 O   0  0  0  0  0  0  0  0  0  0  0  0
   -4.3117   -7.7929    2.3514 O   0  0  0  0  0  0  0  0  0  0  0  0
   -6.3010   -6.2141    2.0543 C   0  0  0  0  0  0  0  0  0  0  0  0
   -5.6890   -5.2892    2.8790 C   0  0  0  0  0  0  0  0  0  0  0  0
   -6.4046   -4.2094    3.3630 C   0  0  0  0  0  0  0  0  0  0  0  0
   -7.7378   -4.0527    3.0209 C   0  0  0  0  0  0  0  0  0  0  0  0
   -8.4429   -2.9911    3.4956 O   0  0  0  0  0  0  0  0  0  0  0  0
   -7.7455   -2.0756    4.3427 C   0  0  1  0  0  0  0  0  0  0  0  0
   -8.3540   -4.9840    2.1900 C   0  0  0  0  0  0  0  0  0  0  0  0
   -9.6625   -4.8342    1.8510 O   0  0  0  0  0  0  0  0  0  0  0  0
  -10.2287   -5.8283    0.9947 C   0  0  1  0  0  0  0  0  0  0  0  0
   -7.6300   -6.0605    1.7045 C   0  0  0  0  0  0  0  0  0  0  0  0
    1.0053    1.8021    0.0021 H   0  0  0  0  0  0  0  0  0  0  0  0
   -0.5445    1.7859   -0.8732 H   0  0  0  0  0  0  0  0  0  0  0  0
   -0.5275    1.7763    0.9067 H   0  0  0  0  0  0  0  0  0  0  0  0
   -1.8320   -0.2936    0.9080 H   0  0  0  0  0  0  0  0  0  0  0  0
   -1.8490   -0.2840   -0.8718 H   0  0  0  0  0  0  0  0  0  0  0  0
   -0.6171   -2.4359   -0.8952 H   0  0  0  0  0  0  0  0  0  0  0  0
   -0.6001   -2.4454    0.8847 H   0  0  0  0  0  0  0  0  0  0  0  0
   -3.0796   -2.4582    0.9083 H   0  0  0  0  0  0  0  0  0  0  0  0
   -3.0966   -2.4487   -0.8716 H   0  0  0  0  0  0  0  0  0  0  0  0
   -1.5262   -4.6316   -0.0082 H   0  0  0  0  0  0  0  0  0  0  0  0
   -2.8312   -6.8153   -0.8975 H   0  0  0  0  0  0  0  0  0  0  0  0
   -2.8143   -6.8249    0.8823 H   0  0  0  0  0  0  0  0  0  0  0  0
   -6.4927   -7.3541   -1.0511 H   0  0  0  0  0  0  0  0  0  0  0  0
   -5.2040   -6.4953   -1.9285 H   0  0  0  0  0  0  0  0  0  0  0  0
   -3.9074   -8.6030   -2.0870 H   0  0  0  0  0  0  0  0  0  0  0  0
   -5.1962   -9.4618   -1.2096 H   0  0  0  0  0  0  0  0  0  0  0  0
   -7.3462   -9.8839   -2.2601 H   0  0  0  0  0  0  0  0  0  0  0  0
   -8.5620  -10.2201   -4.3748 H   0  0  0  0  0  0  0  0  0  0  0  0
   -7.6213   -9.3676   -6.4847 H   0  0  0  0  0  0  0  0  0  0  0  0
   -5.4653   -8.1782   -6.4798 H   0  0  0  0  0  0  0  0  0  0  0  0
   -4.2517   -7.8380   -4.3644 H   0  0  0  0  0  0  0  0  0  0  0  0
   -4.6496   -5.4102    3.1464 H   0  0  0  0  0  0  0  0  0  0  0  0
   -5.9242   -3.4885    4.0078 H   0  0  0  0  0  0  0  0  0  0  0  0
   -7.3802   -2.6024    5.2243 H   0  0  0  0  0  0  0  0  0  0  0  0
   -6.9026   -1.6481    3.7997 H   0  0  0  0  0  0  0  0  0  0  0  0
   -8.4217   -1.2780    4.6503 H   0  0  0  0  0  0  0  0  0  0  0  0
  -10.1606   -6.8039    1.4760 H   0  0  0  0  0  0  0  0  0  0  0  0
  -11.2749   -5.5898    0.8032 H   0  0  0  0  0  0  0  0  0  0  0  0
   -9.6824   -5.8495    0.0517 H   0  0  0  0  0  0  0  0  0  0  0  0
   -8.1057   -6.7845    1.0596 H   0  0  0  0  0  0  0  0  0  0  0  0
  1  2  1  0
  1 32  1  6
  1 33  1  0
  1 34  1  0
  2  3  1  0
  3  4  1  0
  3 35  1  1
  3 36  1  0
  4  5  1  0
  4 37  1  6
  4 38  1  0
  5  6  1  0
  5 39  1  1
  5 40  1  0
  6  7  1  0
  6 41  1  0
  7  8  2  0
  7  9  1  0
  9 10  1  0
  9 42  1  6
  9 43  1  0
 10 11  1  0
 19 10  1  6
 11 12  1  0
 11 44  1  1
 11 45  1  0
 12 13  1  0
 12 46  1  6
 12 47  1  0
 13 18  2  0
 13 14  1  0
 14 15  2  0
 14 48  1  0
 15 16  1  0
 15 49  1  0
 16 17  2  0
 16 50  1  0
 17 18  1  0
 17 51  1  0
 18 52  1  0
 19 20  2  0
 19 21  2  0
 19 22  1  0
 22 31  2  0
 22 23  1  0
 23 24  2  0
 23 53  1  0
 24 25  1  0
 24 54  1  0
 25 26  1  0
 25 28  2  0
 26 27  1  0
 27 55  1  1
 27 56  1  0
 27 57  1  0
 28 29  1  0
 28 31  1  0
 29 30  1  0
 30 58  1  1
 30 59  1  0
 30 60  1  0
 31 61  1  0
M  END
$$$$
