ZINC000007308188
     RDKit          3D

 37 38  0  0  1  0  0  0  0  0999 V2000
   -0.0187    1.5258    0.0104 C   0  0  1  0  0  0  0  0  0  0  0  0
    0.0021   -0.0041    0.0020 C   0  0  2  0  0  0  0  0  0  0  0  0
    0.5121   -0.3563   -0.8946 H   0  0  0  0  0  0  0  0  0  0  0  0
   -1.4357   -0.5357    0.0154 C   0  0  1  0  0  0  0  0  0  0  0  0
   -1.3891   -1.9954    0.1960 N   0  0  0  0  0  0  0  0  0  0  0  0
   -2.2247   -3.0065   -0.8147 S   0  0  1  0  0  0  0  0  0  0  0  0
   -2.4345   -4.2122   -0.0926 O   0  0  0  0  0  0  0  0  0  0  0  0
   -3.2841   -2.2366   -1.3664 O   0  0  0  0  0  0  0  0  0  0  0  0
   -1.1523   -3.4086   -2.1537 C   0  0  0  0  0  0  0  0  0  0  0  0
   -1.1345   -2.6168   -3.2867 C   0  0  0  0  0  0  0  0  0  0  0  0
   -0.2931   -2.9322   -4.3372 C   0  0  0  0  0  0  0  0  0  0  0  0
    0.5307   -4.0392   -4.2545 C   0  0  0  0  0  0  0  0  0  0  0  0
    1.4476   -4.3833   -5.3999 C   0  0  1  0  0  0  0  0  0  0  0  0
    2.6791   -3.7445   -5.2196 F   0  0  0  0  0  0  0  0  0  0  0  0
    1.6423   -5.7681   -5.4415 F   0  0  0  0  0  0  0  0  0  0  0  0
    0.8726   -3.9569   -6.6019 F   0  0  0  0  0  0  0  0  0  0  0  0
    0.5139   -4.8301   -3.1209 C   0  0  0  0  0  0  0  0  0  0  0  0
   -0.3247   -4.5125   -2.0689 C   0  0  0  0  0  0  0  0  0  0  0  0
   -0.5783   -2.5300    1.3016 C   0  0  1  0  0  0  0  0  0  0  0  0
    0.8176   -1.9012    1.2255 C   0  0  1  0  0  0  0  0  0  0  0  0
    1.3896   -2.1761    2.1117 H   0  0  0  0  0  0  0  0  0  0  0  0
    1.5386   -2.4073   -0.0255 C   0  0  1  0  0  0  0  0  0  0  0  0
    0.6913   -0.4787    1.1611 O   0  0  0  0  0  0  0  0  0  0  0  0
    1.0039    1.9031    0.0027 H   0  0  0  0  0  0  0  0  0  0  0  0
   -0.5459    1.8868   -0.8726 H   0  0  0  0  0  0  0  0  0  0  0  0
   -0.5289    1.8773    0.9072 H   0  0  0  0  0  0  0  0  0  0  0  0
   -1.9874   -0.0814    0.8384 H   0  0  0  0  0  0  0  0  0  0  0  0
   -1.9238   -0.2981   -0.9298 H   0  0  0  0  0  0  0  0  0  0  0  0
   -1.7782   -1.7520   -3.3514 H   0  0  0  0  0  0  0  0  0  0  0  0
   -0.2797   -2.3141   -5.2227 H   0  0  0  0  0  0  0  0  0  0  0  0
    1.1579   -5.6947   -3.0561 H   0  0  0  0  0  0  0  0  0  0  0  0
   -0.3378   -5.1305   -1.1832 H   0  0  0  0  0  0  0  0  0  0  0  0
   -1.0437   -2.2765    2.2541 H   0  0  0  0  0  0  0  0  0  0  0  0
   -0.4987   -3.6131    1.2081 H   0  0  0  0  0  0  0  0  0  0  0  0
    0.9671   -2.1305   -0.9113 H   0  0  0  0  0  0  0  0  0  0  0  0
    2.5311   -1.9598   -0.0789 H   0  0  0  0  0  0  0  0  0  0  0  0
    1.6314   -3.4923    0.0226 H   0  0  0  0  0  0  0  0  0  0  0  0
  1  2  1  0
  1 24  1  6
  1 25  1  0
  1 26  1  0
  2  3  1  6
  2 23  1  0
  2  4  1  0
  4  5  1  0
  4 27  1  1
  4 28  1  0
  6  5  1  1
  5 19  1  0
  6  7  2  0
  6  8  2  0
  6  9  1  0
  9 18  2  0
  9 10  1  0
 10 11  2  0
 10 29  1  0
 11 12  1  0
 11 30  1  0
 12 13  1  0
 12 17  2  0
 13 14  1  1
 13 15  1  0
 13 16  1  0
 17 18  1  0
 17 31  1  0
 18 32  1  0
 19 20  1  0
 19 33  1  1
 19 34  1  0
 20 21  1  1
 20 22  1  0
 20 23  1  0
 22 35  1  6
 22 36  1  0
 22 37  1  0
M  END
$$$$
