ZINC000000166219
     RDKit          3D

 32 33  0  0  1  0  0  0  0  0999 V2000
    0.0021   -0.0041    0.0020 O   0  0  0  0  0  0  0  0  0  0  0  0
   -0.0145    1.2150    0.0087 C   0  0  0  0  0  0  0  0  0  0  0  0
    1.0330    1.8389    0.0021 O   0  0  0  0  0  0  0  0  0  0  0  0
   -1.3296    1.9507    0.0190 C   0  0  1  0  0  0  0  0  0  0  0  0
   -1.2142    2.9090    0.5253 H   0  0  0  0  0  0  0  0  0  0  0  0
   -1.8158    2.1769   -1.4281 C   0  0  1  0  0  0  0  0  0  0  0  0
   -3.3483    1.9609   -1.3176 C   0  0  1  0  0  0  0  0  0  0  0  0
   -3.4280    0.8346   -0.2571 C   0  0  1  0  0  0  0  0  0  0  0  0
   -2.3492    1.1428    0.7041 N   0  0  0  0  0  0  0  0  0  0  0  0
   -2.2975    0.6553    2.2859 S   0  0  1  0  0  0  0  0  0  0  0  0
   -1.4514    1.5753    2.9619 O   0  0  0  0  0  0  0  0  0  0  0  0
   -3.6419    0.4067    2.6733 O   0  0  0  0  0  0  0  0  0  0  0  0
   -1.4725   -0.9011    2.3253 C   0  0  0  0  0  0  0  0  0  0  0  0
   -2.1973   -2.0709    2.1969 C   0  0  0  0  0  0  0  0  0  0  0  0
   -1.5499   -3.2921    2.2279 C   0  0  0  0  0  0  0  0  0  0  0  0
   -0.1778   -3.3431    2.3868 C   0  0  0  0  0  0  0  0  0  0  0  0
    0.5473   -2.1729    2.5143 C   0  0  0  0  0  0  0  0  0  0  0  0
    2.0432   -2.2286    2.6880 C   0  0  1  0  0  0  0  0  0  0  0  0
    2.4632   -3.5630    2.6891 F   0  0  0  0  0  0  0  0  0  0  0  0
    2.6607   -1.5462    1.6344 F   0  0  0  0  0  0  0  0  0  0  0  0
    2.3944   -1.6282    3.9019 F   0  0  0  0  0  0  0  0  0  0  0  0
   -0.0994   -0.9519    2.4791 C   0  0  0  0  0  0  0  0  0  0  0  0
   -1.5920    3.1920   -1.7559 H   0  0  0  0  0  0  0  0  0  0  0  0
   -1.3710    1.4457   -2.1031 H   0  0  0  0  0  0  0  0  0  0  0  0
   -3.8458    2.8647   -0.9659 H   0  0  0  0  0  0  0  0  0  0  0  0
   -3.7661    1.6320   -2.2691 H   0  0  0  0  0  0  0  0  0  0  0  0
   -4.3963    0.8522    0.2430 H   0  0  0  0  0  0  0  0  0  0  0  0
   -3.2577   -0.1366   -0.7217 H   0  0  0  0  0  0  0  0  0  0  0  0
   -3.2694   -2.0310    2.0728 H   0  0  0  0  0  0  0  0  0  0  0  0
   -2.1163   -4.2062    2.1282 H   0  0  0  0  0  0  0  0  0  0  0  0
    0.3278   -4.2972    2.4117 H   0  0  0  0  0  0  0  0  0  0  0  0
    0.4670   -0.0378    2.5787 H   0  0  0  0  0  0  0  0  0  0  0  0
  1  2  2  0
  2  3  1  0
  2  4  1  0
  4  5  1  1
  4  9  1  0
  4  6  1  0
  6  7  1  0
  6 23  1  6
  6 24  1  0
  7  8  1  0
  7 25  1  1
  7 26  1  0
  8  9  1  0
  8 27  1  1
  8 28  1  0
 10  9  1  6
 10 11  2  0
 10 12  2  0
 10 13  1  0
 13 22  2  0
 13 14  1  0
 14 15  2  0
 14 29  1  0
 15 16  1  0
 15 30  1  0
 16 17  2  0
 16 31  1  0
 17 18  1  0
 17 22  1  0
 18 19  1  1
 18 20  1  0
 18 21  1  0
 22 32  1  0
M  END
$$$$
