ZINC000028208310
     RDKit          3D

 47 48  0  0  1  0  0  0  0  0999 V2000
   -0.0178    1.4608    0.0101 C   0  0  1  0  0  0  0  0  0  0  0  0
    0.0021   -0.0041    0.0020 N   0  0  0  0  0  0  0  0  0  0  0  0
    0.0241   -0.7433    1.2666 C   0  0  1  0  0  0  0  0  0  0  0  0
   -0.0004   -0.8243   -1.4366 S   0  0  1  0  0  0  0  0  0  0  0  0
   -0.5247   -2.1160   -1.1611 O   0  0  0  0  0  0  0  0  0  0  0  0
   -0.5660    0.0551   -2.3989 O   0  0  0  0  0  0  0  0  0  0  0  0
    1.6816   -1.0597   -1.9056 C   0  0  0  0  0  0  0  0  0  0  0  0
    2.3234   -0.1095   -2.6777 C   0  0  0  0  0  0  0  0  0  0  0  0
    3.6430   -0.2942   -3.0457 C   0  0  0  0  0  0  0  0  0  0  0  0
    4.3210   -1.4289   -2.6412 C   0  0  0  0  0  0  0  0  0  0  0  0
    5.7594   -1.6304   -3.0428 C   0  0  1  0  0  0  0  0  0  0  0  0
    6.6758   -1.0157   -1.9829 C   0  0  1  0  0  0  0  0  0  0  0  0
    8.1142   -1.2173   -2.3845 C   0  0  0  0  0  0  0  0  0  0  0  0
    8.3803   -1.7957   -3.4168 O   0  0  0  0  0  0  0  0  0  0  0  0
    9.1050   -0.7549   -1.5965 N   0  0  0  0  0  0  0  0  0  0  0  0
   10.5034   -0.9508   -1.9869 C   0  0  1  0  0  0  0  0  0  0  0  0
   11.4197   -0.3361   -0.9270 C   0  0  2  0  0  0  0  0  0  0  0  0
   11.1493    0.7073   -0.7648 H   0  0  0  0  0  0  0  0  0  0  0  0
   12.8902   -0.4304   -1.3876 C   0  0  1  0  0  0  0  0  0  0  0  0
   13.6282   -0.7756   -0.0654 C   0  0  1  0  0  0  0  0  0  0  0  0
   12.5672   -1.6551    0.6427 C   0  0  1  0  0  0  0  0  0  0  0  0
   11.3010   -1.0654    0.3001 O   0  0  0  0  0  0  0  0  0  0  0  0
    3.6797   -2.3784   -1.8680 C   0  0  0  0  0  0  0  0  0  0  0  0
    2.3612   -2.1919   -1.4968 C   0  0  0  0  0  0  0  0  0  0  0  0
    1.0048    1.8381    0.0023 H   0  0  0  0  0  0  0  0  0  0  0  0
   -0.5450    1.8219   -0.8730 H   0  0  0  0  0  0  0  0  0  0  0  0
   -0.5280    1.8123    0.9069 H   0  0  0  0  0  0  0  0  0  0  0  0
   -0.9979   -0.9406    1.5900 H   0  0  0  0  0  0  0  0  0  0  0  0
    0.5496   -1.6879    1.1262 H   0  0  0  0  0  0  0  0  0  0  0  0
    0.5371   -0.1514    2.0246 H   0  0  0  0  0  0  0  0  0  0  0  0
    1.7936    0.7771   -2.9938 H   0  0  0  0  0  0  0  0  0  0  0  0
    4.1441    0.4479   -3.6495 H   0  0  0  0  0  0  0  0  0  0  0  0
    5.9668   -2.6971   -3.1279 H   0  0  0  0  0  0  0  0  0  0  0  0
    5.9396   -1.1475   -4.0032 H   0  0  0  0  0  0  0  0  0  0  0  0
    6.4684    0.0510   -1.8978 H   0  0  0  0  0  0  0  0  0  0  0  0
    6.4956   -1.4987   -1.0225 H   0  0  0  0  0  0  0  0  0  0  0  0
    8.8922   -0.2923   -0.7709 H   0  0  0  0  0  0  0  0  0  0  0  0
   10.7108   -2.0175   -2.0720 H   0  0  0  0  0  0  0  0  0  0  0  0
   10.6836   -0.4679   -2.9473 H   0  0  0  0  0  0  0  0  0  0  0  0
   13.0165   -1.2264   -2.1215 H   0  0  0  0  0  0  0  0  0  0  0  0
   13.2339    0.5241   -1.7860 H   0  0  0  0  0  0  0  0  0  0  0  0
   14.5400   -1.3402   -0.2603 H   0  0  0  0  0  0  0  0  0  0  0  0
   13.8414    0.1241    0.5118 H   0  0  0  0  0  0  0  0  0  0  0  0
   12.6196   -2.6802    0.2758 H   0  0  0  0  0  0  0  0  0  0  0  0
   12.7152   -1.6309    1.7223 H   0  0  0  0  0  0  0  0  0  0  0  0
    4.2095   -3.2648   -1.5516 H   0  0  0  0  0  0  0  0  0  0  0  0
    1.8602   -2.9338   -0.8927 H   0  0  0  0  0  0  0  0  0  0  0  0
  1  2  1  0
  1 25  1  6
  1 26  1  0
  1 27  1  0
  2  3  1  0
  4  2  1  1
  3 28  1  1
  3 29  1  0
  3 30  1  0
  4  5  2  0
  4  6  2  0
  4  7  1  0
  7 24  2  0
  7  8  1  0
  8  9  2  0
  8 31  1  0
  9 10  1  0
  9 32  1  0
 10 11  1  0
 10 23  2  0
 11 12  1  0
 11 33  1  6
 11 34  1  0
 12 13  1  0
 12 35  1  1
 12 36  1  0
 13 14  2  0
 13 15  1  0
 15 16  1  0
 15 37  1  0
 16 17  1  0
 16 38  1  6
 16 39  1  0
 17 18  1  1
 17 22  1  0
 17 19  1  0
 19 20  1  0
 19 40  1  6
 19 41  1  0
 20 21  1  0
 20 42  1  6
 20 43  1  0
 21 22  1  0
 21 44  1  6
 21 45  1  0
 23 24  1  0
 23 46  1  0
 24 47  1  0
M  END
$$$$
