ZINC000010753595
     RDKit          3D

 40 41  0  0  1  0  0  0  0  0999 V2000
    0.3852    1.3491    0.0183 C   0  0  1  0  0  0  0  0  0  0  0  0
    0.3799   -0.1145   -0.0467 N   0  0  0  0  0  0  0  0  0  0  0  0
    0.8531   -0.9002    1.0956 C   0  0  1  0  0  0  0  0  0  0  0  0
   -0.0604   -0.7381   -1.1575 C   0  0  0  0  0  0  0  0  0  0  0  0
   -0.3708   -0.0896   -2.1343 O   0  0  0  0  0  0  0  0  0  0  0  0
   -0.1669   -2.2410   -1.1858 C   0  0  1  0  0  0  0  0  0  0  0  0
    0.5996   -2.6789   -0.5464 H   0  0  0  0  0  0  0  0  0  0  0  0
   -1.5660   -2.6772   -0.7020 C   0  0  1  0  0  0  0  0  0  0  0  0
   -2.3401   -2.8951   -2.0289 C   0  0  1  0  0  0  0  0  0  0  0  0
   -1.2294   -3.4629   -2.9474 C   0  0  1  0  0  0  0  0  0  0  0  0
   -0.0066   -2.7278   -2.5638 N   0  0  0  0  0  0  0  0  0  0  0  0
    1.3188   -2.4899   -3.5276 S   0  0  1  0  0  0  0  0  0  0  0  0
    2.3792   -2.1046   -2.6637 O   0  0  0  0  0  0  0  0  0  0  0  0
    1.3917   -3.6137   -4.3942 O   0  0  0  0  0  0  0  0  0  0  0  0
    0.9775   -1.0953   -4.5490 C   0  0  0  0  0  0  0  0  0  0  0  0
    0.2451   -1.2523   -5.7109 C   0  0  0  0  0  0  0  0  0  0  0  0
   -0.0227   -0.1582   -6.5122 C   0  0  0  0  0  0  0  0  0  0  0  0
    0.4415    1.0929   -6.1514 C   0  0  0  0  0  0  0  0  0  0  0  0
    0.1499    2.2856   -7.0253 C   0  0  1  0  0  0  0  0  0  0  0  0
   -1.0542    2.8743   -6.6243 F   0  0  0  0  0  0  0  0  0  0  0  0
    1.1871    3.2167   -6.9047 F   0  0  0  0  0  0  0  0  0  0  0  0
    0.0462    1.8730   -8.3580 F   0  0  0  0  0  0  0  0  0  0  0  0
    1.1726    1.2501   -4.9888 C   0  0  0  0  0  0  0  0  0  0  0  0
    1.4372    0.1566   -4.1855 C   0  0  0  0  0  0  0  0  0  0  0  0
    1.3392    1.7257   -0.3508 H   0  0  0  0  0  0  0  0  0  0  0  0
   -0.4236    1.7431   -0.5971 H   0  0  0  0  0  0  0  0  0  0  0  0
    0.2440    1.6674    1.0512 H   0  0  0  0  0  0  0  0  0  0  0  0
    1.2457   -0.2297    1.8601 H   0  0  0  0  0  0  0  0  0  0  0  0
    0.0250   -1.4764    1.5082 H   0  0  0  0  0  0  0  0  0  0  0  0
    1.6406   -1.5790    0.7684 H   0  0  0  0  0  0  0  0  0  0  0  0
   -1.5055   -3.6054   -0.1339 H   0  0  0  0  0  0  0  0  0  0  0  0
   -2.0316   -1.8902   -0.1087 H   0  0  0  0  0  0  0  0  0  0  0  0
   -3.1455   -3.6178   -1.8972 H   0  0  0  0  0  0  0  0  0  0  0  0
   -2.7236   -1.9515   -2.4170 H   0  0  0  0  0  0  0  0  0  0  0  0
   -1.0997   -4.5306   -2.7703 H   0  0  0  0  0  0  0  0  0  0  0  0
   -1.4711   -3.2777   -3.9940 H   0  0  0  0  0  0  0  0  0  0  0  0
   -0.1175   -2.2298   -5.9928 H   0  0  0  0  0  0  0  0  0  0  0  0
   -0.5942   -0.2809   -7.4203 H   0  0  0  0  0  0  0  0  0  0  0  0
    1.5349    2.2276   -4.7068 H   0  0  0  0  0  0  0  0  0  0  0  0
    2.0084    0.2794   -3.2772 H   0  0  0  0  0  0  0  0  0  0  0  0
  1  2  1  0
  1 25  1  6
  1 26  1  0
  1 27  1  0
  2  3  1  0
  2  4  1  0
  3 28  1  1
  3 29  1  0
  3 30  1  0
  4  5  2  0
  4  6  1  0
  6  7  1  1
  6 11  1  0
  6  8  1  0
  8  9  1  0
  8 31  1  1
  8 32  1  0
  9 10  1  0
  9 33  1  1
  9 34  1  0
 10 11  1  0
 10 35  1  6
 10 36  1  0
 12 11  1  1
 12 13  2  0
 12 14  2  0
 12 15  1  0
 15 24  2  0
 15 16  1  0
 16 17  2  0
 16 37  1  0
 17 18  1  0
 17 38  1  0
 18 19  1  0
 18 23  2  0
 19 20  1  1
 19 21  1  0
 19 22  1  0
 23 24  1  0
 23 39  1  0
 24 40  1  0
M  END
$$$$
