ZINC000045944819
     RDKit          3D

 65 66  0  0  0  0  0  0  0  0999 V2000
   -0.0173    1.4248    0.0099 C   0  0  1  0  0  0  0  0  0  0  0  0
    0.0021   -0.0041    0.0020 O   0  0  0  0  0  0  0  0  0  0  0  0
    0.6518   -0.5703   -1.1379 C   0  0  1  0  0  0  0  0  0  0  0  0
    0.6131   -2.0967   -1.0411 C   0  0  1  0  0  0  0  0  0  0  0  0
    1.3087   -2.7029   -2.2615 C   0  0  1  0  0  0  0  0  0  0  0  0
    1.2717   -4.1645   -2.1688 N   0  0  0  0  0  0  0  0  0  0  0  0
    0.0984   -4.8994   -2.6480 C   0  0  1  0  0  0  0  0  0  0  0  0
    0.2296   -5.1446   -4.1525 C   0  0  1  0  0  0  0  0  0  0  0  0
   -0.9774   -5.9005   -4.6454 C   0  0  0  0  0  0  0  0  0  0  0  0
   -1.8560   -6.2124   -3.8697 O   0  0  0  0  0  0  0  0  0  0  0  0
   -1.0804   -6.2299   -5.9482 N   0  0  0  0  0  0  0  0  0  0  0  0
   -0.0242   -5.8674   -6.9059 C   0  0  1  0  0  0  0  0  0  0  0  0
    0.3626   -7.1198   -7.6994 C   0  0  1  0  0  0  0  0  0  0  0  0
   -0.8388   -7.6998   -8.3129 N   0  0  1  0  0  0  0  0  0  0  0  0
   -1.2973   -7.0008   -8.8779 H   0  0  0  0  0  0  0  0  0  0  0  0
   -0.5743   -8.4804   -8.8950 H   0  0  0  0  0  0  0  0  0  0  0  0
   -1.7600   -8.1633   -7.2677 C   0  0  1  0  0  0  0  0  0  0  0  0
   -2.2494   -6.9675   -6.4517 C   0  0  1  0  0  0  0  0  0  0  0  0
    2.5560   -4.9861   -1.5224 S   0  0  1  0  0  0  0  0  0  0  0  0
    2.4962   -6.3039   -2.0504 O   0  0  0  0  0  0  0  0  0  0  0  0
    3.6885   -4.1404   -1.6697 O   0  0  0  0  0  0  0  0  0  0  0  0
    2.2647   -5.1302    0.2094 C   0  0  0  0  0  0  0  0  0  0  0  0
    2.7166   -4.1477    1.0704 C   0  0  0  0  0  0  0  0  0  0  0  0
    2.4880   -4.2608    2.4290 C   0  0  0  0  0  0  0  0  0  0  0  0
    1.8072   -5.3562    2.9266 C   0  0  0  0  0  0  0  0  0  0  0  0
    1.5585   -5.4798    4.4078 C   0  0  1  0  0  0  0  0  0  0  0  0
    0.2262   -4.8143    4.7584 C   0  0  1  0  0  0  0  0  0  0  0  0
   -0.9177   -5.5800    4.0907 C   0  0  1  0  0  0  0  0  0  0  0  0
    0.0325   -4.8293    6.2761 C   0  0  1  0  0  0  0  0  0  0  0  0
    1.3542   -6.3381    2.0654 C   0  0  0  0  0  0  0  0  0  0  0  0
    1.5794   -6.2231    0.7064 C   0  0  0  0  0  0  0  0  0  0  0  0
    1.0053    1.8021    0.0021 H   0  0  0  0  0  0  0  0  0  0  0  0
   -0.5445    1.7859   -0.8732 H   0  0  0  0  0  0  0  0  0  0  0  0
   -0.5275    1.7763    0.9067 H   0  0  0  0  0  0  0  0  0  0  0  0
    0.1385   -0.2506   -2.0447 H   0  0  0  0  0  0  0  0  0  0  0  0
    1.6883   -0.2344   -1.1694 H   0  0  0  0  0  0  0  0  0  0  0  0
    1.1264   -2.4164   -0.1342 H   0  0  0  0  0  0  0  0  0  0  0  0
   -0.4234   -2.4326   -1.0095 H   0  0  0  0  0  0  0  0  0  0  0  0
    0.7954   -2.3833   -3.1684 H   0  0  0  0  0  0  0  0  0  0  0  0
    2.3452   -2.3671   -2.2930 H   0  0  0  0  0  0  0  0  0  0  0  0
    0.0313   -5.8553   -2.1285 H   0  0  0  0  0  0  0  0  0  0  0  0
   -0.8010   -4.3155   -2.4521 H   0  0  0  0  0  0  0  0  0  0  0  0
    0.2967   -4.1887   -4.6719 H   0  0  0  0  0  0  0  0  0  0  0  0
    1.1289   -5.7284   -4.3484 H   0  0  0  0  0  0  0  0  0  0  0  0
   -0.3948   -5.1019   -7.5875 H   0  0  0  0  0  0  0  0  0  0  0  0
    0.8457   -5.4921   -6.3670 H   0  0  0  0  0  0  0  0  0  0  0  0
    1.0750   -6.8504   -8.4792 H   0  0  0  0  0  0  0  0  0  0  0  0
    0.8165   -7.8493   -7.0286 H   0  0  0  0  0  0  0  0  0  0  0  0
   -2.6118   -8.6628   -7.7293 H   0  0  0  0  0  0  0  0  0  0  0  0
   -1.2420   -8.8612   -6.6100 H   0  0  0  0  0  0  0  0  0  0  0  0
   -2.8521   -7.3179   -5.6138 H   0  0  0  0  0  0  0  0  0  0  0  0
   -2.8449   -6.3106   -7.0857 H   0  0  0  0  0  0  0  0  0  0  0  0
    3.2484   -3.2919    0.6817 H   0  0  0  0  0  0  0  0  0  0  0  0
    2.8416   -3.4936    3.1018 H   0  0  0  0  0  0  0  0  0  0  0  0
    1.5218   -6.5337    4.6834 H   0  0  0  0  0  0  0  0  0  0  0  0
    2.3644   -4.9893    4.9537 H   0  0  0  0  0  0  0  0  0  0  0  0
    0.2300   -3.7839    4.4028 H   0  0  0  0  0  0  0  0  0  0  0  0
   -0.9216   -6.6104    4.4463 H   0  0  0  0  0  0  0  0  0  0  0  0
   -1.8669   -5.1059    4.3405 H   0  0  0  0  0  0  0  0  0  0  0  0
   -0.7797   -5.5693    3.0095 H   0  0  0  0  0  0  0  0  0  0  0  0
    0.8474   -4.2838    6.7518 H   0  0  0  0  0  0  0  0  0  0  0  0
   -0.9167   -4.3552    6.5259 H   0  0  0  0  0  0  0  0  0  0  0  0
    0.0286   -5.8597    6.6317 H   0  0  0  0  0  0  0  0  0  0  0  0
    0.8220   -7.1937    2.4540 H   0  0  0  0  0  0  0  0  0  0  0  0
    1.2254   -6.9901    0.0335 H   0  0  0  0  0  0  0  0  0  0  0  0
  1  2  1  0
  1 32  1  6
  1 33  1  0
  1 34  1  0
  2  3  1  0
  3  4  1  0
  3 35  1  6
  3 36  1  0
  4  5  1  0
  4 37  1  1
  4 38  1  0
  5  6  1  0
  5 39  1  6
  5 40  1  0
  6  7  1  0
 19  6  1  6
  7  8  1  0
  7 41  1  1
  7 42  1  0
  8  9  1  0
  8 43  1  6
  8 44  1  0
  9 10  2  0
  9 11  1  0
 11 18  1  0
 11 12  1  0
 12 13  1  0
 12 45  1  6
 12 46  1  0
 13 14  1  0
 13 47  1  6
 13 48  1  0
 14 15  1  6
 14 16  1  0
 14 17  1  0
 17 18  1  0
 17 49  1  6
 17 50  1  0
 18 51  1  1
 18 52  1  0
 19 20  2  0
 19 21  2  0
 19 22  1  0
 22 31  2  0
 22 23  1  0
 23 24  2  0
 23 53  1  0
 24 25  1  0
 24 54  1  0
 25 26  1  0
 25 30  2  0
 26 27  1  0
 26 55  1  1
 26 56  1  0
 27 28  1  0
 27 29  1  0
 27 57  1  6
 28 58  1  1
 28 59  1  0
 28 60  1  0
 29 61  1  1
 29 62  1  0
 29 63  1  0
 30 31  1  0
 30 64  1  0
 31 65  1  0
M  CHG  1  14   1
M  END
$$$$
