ZINC000169350751
     RDKit          3D

 61 63  0  0  1  0  0  0  0  0999 V2000
    0.3513    1.4946   -0.0026 C   0  0  1  0  0  0  0  0  0  0  0  0
    0.0371   -0.0026    0.0204 C   0  0  1  0  0  0  0  0  0  0  0  0
    0.3886   -0.4332    0.9580 H   0  0  0  0  0  0  0  0  0  0  0  0
   -1.4515   -0.2053   -0.0987 C   0  0  0  0  0  0  0  0  0  0  0  0
   -1.9490   -0.4230   -1.1831 O   0  0  0  0  0  0  0  0  0  0  0  0
   -2.2298   -0.1448    0.9999 N   0  0  0  0  0  0  0  0  0  0  0  0
   -1.6328    0.0209    2.3322 C   0  0  1  0  0  0  0  0  0  0  0  0
   -2.2866    1.2239    3.0193 C   0  0  2  0  0  0  0  0  0  0  0  0
   -2.0360    2.1343    2.4748 H   0  0  0  0  0  0  0  0  0  0  0  0
   -1.7744    1.3313    4.4570 C   0  0  1  0  0  0  0  0  0  0  0  0
   -3.8055    1.0368    3.0301 C   0  0  1  0  0  0  0  0  0  0  0  0
   -4.3222    0.9626    1.5914 C   0  0  1  0  0  0  0  0  0  0  0  0
   -5.4067    0.8528    1.5996 H   0  0  0  0  0  0  0  0  0  0  0  0
   -3.9443    2.2443    0.8463 C   0  0  1  0  0  0  0  0  0  0  0  0
   -3.6919   -0.2373    0.8875 C   0  0  1  0  0  0  0  0  0  0  0  0
    0.7127   -0.6621   -1.1050 N   0  0  0  0  0  0  0  0  0  0  0  0
    0.3772   -2.0914   -1.1560 C   0  0  1  0  0  0  0  0  0  0  0  0
    0.9509   -2.7019   -2.4391 C   0  0  1  0  0  0  0  0  0  0  0  0
    2.3888   -2.3981   -2.4987 N   0  0  0  0  0  0  0  0  0  0  0  0
    3.5005   -3.5966   -2.7631 S   0  0  1  0  0  0  0  0  0  0  0  0
    4.7312   -3.1271   -2.2300 O   0  0  0  0  0  0  0  0  0  0  0  0
    2.8876   -4.8105   -2.3506 O   0  0  0  0  0  0  0  0  0  0  0  0
    3.7284   -3.7214   -4.5058 C   0  0  0  0  0  0  0  0  0  0  0  0
    2.9311   -4.5725   -5.2480 C   0  0  0  0  0  0  0  0  0  0  0  0
    3.1099   -4.6704   -6.6152 C   0  0  0  0  0  0  0  0  0  0  0  0
    4.0858   -3.9169   -7.2403 C   0  0  0  0  0  0  0  0  0  0  0  0
    4.2811   -4.0240   -8.7308 C   0  0  1  0  0  0  0  0  0  0  0  0
    3.4715   -3.0829   -9.3760 F   0  0  0  0  0  0  0  0  0  0  0  0
    5.6222   -3.7784   -9.0442 F   0  0  0  0  0  0  0  0  0  0  0  0
    3.9308   -5.3100   -9.1558 F   0  0  0  0  0  0  0  0  0  0  0  0
    4.8823   -3.0648   -6.4983 C   0  0  0  0  0  0  0  0  0  0  0  0
    4.7009   -2.9641   -5.1316 C   0  0  0  0  0  0  0  0  0  0  0  0
    2.8130   -1.0015   -2.3177 C   0  0  1  0  0  0  0  0  0  0  0  0
    2.1659   -0.4579   -1.0394 C   0  0  1  0  0  0  0  0  0  0  0  0
    1.4159    1.6452    0.1767 H   0  0  0  0  0  0  0  0  0  0  0  0
    0.0849    1.9068   -0.9759 H   0  0  0  0  0  0  0  0  0  0  0  0
   -0.2229    1.9984    0.7748 H   0  0  0  0  0  0  0  0  0  0  0  0
   -1.8065   -0.8773    2.9247 H   0  0  0  0  0  0  0  0  0  0  0  0
   -0.5612    0.1944    2.2334 H   0  0  0  0  0  0  0  0  0  0  0  0
   -0.6923    1.4619    4.4484 H   0  0  0  0  0  0  0  0  0  0  0  0
   -2.2399    2.1874    4.9455 H   0  0  0  0  0  0  0  0  0  0  0  0
   -2.0262    0.4212    5.0014 H   0  0  0  0  0  0  0  0  0  0  0  0
   -4.0539    0.1134    3.5532 H   0  0  0  0  0  0  0  0  0  0  0  0
   -4.2716    1.8797    3.5403 H   0  0  0  0  0  0  0  0  0  0  0  0
   -2.8598    2.3531    0.8374 H   0  0  0  0  0  0  0  0  0  0  0  0
   -4.3126    2.1910   -0.1782 H   0  0  0  0  0  0  0  0  0  0  0  0
   -4.3914    3.1020    1.3489 H   0  0  0  0  0  0  0  0  0  0  0  0
   -3.9796   -0.2367   -0.1638 H   0  0  0  0  0  0  0  0  0  0  0  0
   -4.0314   -1.1585    1.3610 H   0  0  0  0  0  0  0  0  0  0  0  0
    0.8049   -2.5965   -0.2900 H   0  0  0  0  0  0  0  0  0  0  0  0
   -0.7062   -2.2111   -1.1490 H   0  0  0  0  0  0  0  0  0  0  0  0
    0.8051   -3.7820   -2.4277 H   0  0  0  0  0  0  0  0  0  0  0  0
    0.4494   -2.2710   -3.3056 H   0  0  0  0  0  0  0  0  0  0  0  0
    2.1686   -5.1611   -4.7596 H   0  0  0  0  0  0  0  0  0  0  0  0
    2.4874   -5.3358   -7.1949 H   0  0  0  0  0  0  0  0  0  0  0  0
    5.6445   -2.4759   -6.9868 H   0  0  0  0  0  0  0  0  0  0  0  0
    5.3231   -2.2984   -4.5519 H   0  0  0  0  0  0  0  0  0  0  0  0
    3.8982   -0.9574   -2.2261 H   0  0  0  0  0  0  0  0  0  0  0  0
    2.4905   -0.4071   -3.1726 H   0  0  0  0  0  0  0  0  0  0  0  0
    2.3798    0.6070   -0.9479 H   0  0  0  0  0  0  0  0  0  0  0  0
    2.5688   -0.9858   -0.1750 H   0  0  0  0  0  0  0  0  0  0  0  0
  1  2  1  0
  1 35  1  1
  1 36  1  0
  1 37  1  0
  2  3  1  1
  2  4  1  0
  2 16  1  0
  4  5  2  0
  4  6  1  0
  6 15  1  0
  6  7  1  0
  7  8  1  0
  7 38  1  1
  7 39  1  0
  8  9  1  6
  8 10  1  0
  8 11  1  0
 10 40  1  6
 10 41  1  0
 10 42  1  0
 11 12  1  0
 11 43  1  1
 11 44  1  0
 12 13  1  1
 12 14  1  0
 12 15  1  0
 14 45  1  6
 14 46  1  0
 14 47  1  0
 15 48  1  6
 15 49  1  0
 16 34  1  0
 16 17  1  0
 17 18  1  0
 17 50  1  1
 17 51  1  0
 18 19  1  0
 18 52  1  1
 18 53  1  0
 20 19  1  6
 19 33  1  0
 20 21  2  0
 20 22  2  0
 20 23  1  0
 23 32  2  0
 23 24  1  0
 24 25  2  0
 24 54  1  0
 25 26  1  0
 25 55  1  0
 26 27  1  0
 26 31  2  0
 27 28  1  6
 27 29  1  0
 27 30  1  0
 31 32  1  0
 31 56  1  0
 32 57  1  0
 33 34  1  0
 33 58  1  1
 33 59  1  0
 34 60  1  1
 34 61  1  0
M  END
$$$$
