ZINC000017847791
     RDKit          3D

 47 49  0  0  0  0  0  0  0  0999 V2000
    0.0648    0.0269    0.2700 O   0  0  0  0  0  0  0  0  0  0  0  0
   -0.0144    1.2113    0.0087 C   0  0  0  0  0  0  0  0  0  0  0  0
    1.1922    2.0636    0.0674 C   0  0  0  0  0  0  0  0  0  0  0  0
    1.1220    3.3403    0.6272 C   0  0  0  0  0  0  0  0  0  0  0  0
    2.2516    4.1306    0.6789 C   0  0  0  0  0  0  0  0  0  0  0  0
    3.4521    3.6603    0.1770 C   0  0  0  0  0  0  0  0  0  0  0  0
    4.6820    4.5291    0.2368 C   0  0  1  0  0  0  0  0  0  0  0  0
    5.3601    4.2953    1.4379 F   0  0  0  0  0  0  0  0  0  0  0  0
    5.5216    4.2236   -0.8398 F   0  0  0  0  0  0  0  0  0  0  0  0
    4.3061    5.8749    0.1678 F   0  0  0  0  0  0  0  0  0  0  0  0
    3.5286    2.3957   -0.3792 C   0  0  0  0  0  0  0  0  0  0  0  0
    2.4078    1.5929   -0.4314 C   0  0  0  0  0  0  0  0  0  0  0  0
   -1.2012    1.7465   -0.3400 N   0  0  0  0  0  0  0  0  0  0  0  0
   -1.2890    3.1435   -0.7879 C   0  0  1  0  0  0  0  0  0  0  0  0
   -1.9631    3.1752   -2.1651 C   0  0  1  0  0  0  0  0  0  0  0  0
   -3.1925    2.3721   -2.1048 N   0  0  0  0  0  0  0  0  0  0  0  0
   -4.6505    3.0294   -2.5343 S   0  0  1  0  0  0  0  0  0  0  0  0
   -5.6470    2.2621   -1.8729 O   0  0  0  0  0  0  0  0  0  0  0  0
   -4.5192    4.4353   -2.3754 O   0  0  0  0  0  0  0  0  0  0  0  0
   -4.8645    2.7415   -4.2594 C   0  0  0  0  0  0  0  0  0  0  0  0
   -4.4032    3.6668   -5.1770 C   0  0  0  0  0  0  0  0  0  0  0  0
   -4.5710    3.4410   -6.5304 C   0  0  0  0  0  0  0  0  0  0  0  0
   -5.1998    2.2897   -6.9663 C   0  0  0  0  0  0  0  0  0  0  0  0
   -5.3832    2.0437   -8.4417 C   0  0  1  0  0  0  0  0  0  0  0  0
   -4.2764    1.3479   -8.9396 F   0  0  0  0  0  0  0  0  0  0  0  0
   -6.5414    1.2865   -8.6478 F   0  0  0  0  0  0  0  0  0  0  0  0
   -5.5021    3.2684   -9.1074 F   0  0  0  0  0  0  0  0  0  0  0  0
   -5.6598    1.3637   -6.0488 C   0  0  0  0  0  0  0  0  0  0  0  0
   -5.4885    1.5877   -4.6955 C   0  0  0  0  0  0  0  0  0  0  0  0
   -3.1046    0.9751   -1.6569 C   0  0  1  0  0  0  0  0  0  0  0  0
   -2.4297    0.9418   -0.2850 C   0  0  1  0  0  0  0  0  0  0  0  0
    0.1853    3.7088    1.0187 H   0  0  0  0  0  0  0  0  0  0  0  0
    2.1986    5.1186    1.1117 H   0  0  0  0  0  0  0  0  0  0  0  0
    4.4686    2.0347   -0.7695 H   0  0  0  0  0  0  0  0  0  0  0  0
    2.4688    0.6060   -0.8658 H   0  0  0  0  0  0  0  0  0  0  0  0
   -1.8820    3.7190   -0.0770 H   0  0  0  0  0  0  0  0  0  0  0  0
   -0.2877    3.5679   -0.8609 H   0  0  0  0  0  0  0  0  0  0  0  0
   -2.2106    4.2037   -2.4278 H   0  0  0  0  0  0  0  0  0  0  0  0
   -1.2889    2.7563   -2.9122 H   0  0  0  0  0  0  0  0  0  0  0  0
   -3.9120    4.5664   -4.8365 H   0  0  0  0  0  0  0  0  0  0  0  0
   -4.2113    4.1643   -7.2472 H   0  0  0  0  0  0  0  0  0  0  0  0
   -6.1507    0.4640   -6.3893 H   0  0  0  0  0  0  0  0  0  0  0  0
   -5.8479    0.8643   -3.9786 H   0  0  0  0  0  0  0  0  0  0  0  0
   -4.1060    0.5507   -1.5839 H   0  0  0  0  0  0  0  0  0  0  0  0
   -2.5117    0.3996   -2.3678 H   0  0  0  0  0  0  0  0  0  0  0  0
   -2.1828   -0.0872   -0.0237 H   0  0  0  0  0  0  0  0  0  0  0  0
   -3.1020    1.3608    0.4637 H   0  0  0  0  0  0  0  0  0  0  0  0
  1  2  2  0
  2  3  1  0
  2 13  1  0
  3 12  2  0
  3  4  1  0
  4  5  2  0
  4 32  1  0
  5  6  1  0
  5 33  1  0
  6  7  1  0
  6 11  2  0
  7  8  1  1
  7  9  1  0
  7 10  1  0
 11 12  1  0
 11 34  1  0
 12 35  1  0
 13 31  1  0
 13 14  1  0
 14 15  1  0
 14 36  1  1
 14 37  1  0
 15 16  1  0
 15 38  1  6
 15 39  1  0
 17 16  1  1
 16 30  1  0
 17 18  2  0
 17 19  2  0
 17 20  1  0
 20 29  2  0
 20 21  1  0
 21 22  2  0
 21 40  1  0
 22 23  1  0
 22 41  1  0
 23 24  1  0
 23 28  2  0
 24 25  1  6
 24 26  1  0
 24 27  1  0
 28 29  1  0
 28 42  1  0
 29 43  1  0
 30 31  1  0
 30 44  1  1
 30 45  1  0
 31 46  1  1
 31 47  1  0
M  END
$$$$
