ZINC000011689688
     RDKit          3D

 49 51  0  0  0  0  0  0  0  0999 V2000
   -0.0178    1.4608    0.0101 C   0  0  1  0  0  0  0  0  0  0  0  0
    0.0021   -0.0041    0.0020 N   0  0  0  0  0  0  0  0  0  0  0  0
    0.5851   -0.6645   -1.0180 C   0  0  0  0  0  0  0  0  0  0  0  0
    1.0933   -0.0461   -1.9292 O   0  0  0  0  0  0  0  0  0  0  0  0
    0.6055   -2.1713   -1.0263 C   0  0  1  0  0  0  0  0  0  0  0  0
    1.2912   -2.6438   -2.2316 N   0  0  0  0  0  0  0  0  0  0  0  0
    2.7512   -2.7639   -2.2442 C   0  0  1  0  0  0  0  0  0  0  0  0
    3.1566   -4.1186   -1.6602 C   0  0  1  0  0  0  0  0  0  0  0  0
    4.6585   -4.2421   -1.6732 C   0  0  0  0  0  0  0  0  0  0  0  0
    5.2983   -4.7796   -2.7744 C   0  0  0  0  0  0  0  0  0  0  0  0
    6.6760   -4.8928   -2.7863 C   0  0  0  0  0  0  0  0  0  0  0  0
    7.4138   -4.4683   -1.6972 C   0  0  0  0  0  0  0  0  0  0  0  0
    6.7741   -3.9300   -0.5964 C   0  0  0  0  0  0  0  0  0  0  0  0
    5.3968   -3.8128   -0.5862 C   0  0  0  0  0  0  0  0  0  0  0  0
    0.4160   -3.0421   -3.5798 S   0  0  1  0  0  0  0  0  0  0  0  0
    1.2201   -3.9434   -4.3284 O   0  0  0  0  0  0  0  0  0  0  0  0
   -0.8935   -3.3598   -3.1286 O   0  0  0  0  0  0  0  0  0  0  0  0
    0.2659   -1.5820   -4.5545 C   0  0  0  0  0  0  0  0  0  0  0  0
   -0.8025   -0.7277   -4.3573 C   0  0  0  0  0  0  0  0  0  0  0  0
   -0.9249    0.4177   -5.1216 C   0  0  0  0  0  0  0  0  0  0  0  0
    0.0246    0.7128   -6.0880 C   0  0  0  0  0  0  0  0  0  0  0  0
   -0.1136    1.8398   -6.8384 O   0  0  0  0  0  0  0  0  0  0  0  0
    1.0501    2.2937   -7.5382 C   0  0  1  0  0  0  0  0  0  0  0  0
    1.6974    1.0858   -8.2290 C   0  0  1  0  0  0  0  0  0  0  0  0
    2.0473    0.1286   -7.2234 O   0  0  0  0  0  0  0  0  0  0  0  0
    1.1013   -0.1445   -6.2836 C   0  0  0  0  0  0  0  0  0  0  0  0
    1.2201   -1.2899   -5.5111 C   0  0  0  0  0  0  0  0  0  0  0  0
    1.0048    1.8381    0.0023 H   0  0  0  0  0  0  0  0  0  0  0  0
   -0.5450    1.8219   -0.8730 H   0  0  0  0  0  0  0  0  0  0  0  0
   -0.5280    1.8123    0.9069 H   0  0  0  0  0  0  0  0  0  0  0  0
   -0.4044   -0.4986    0.7308 H   0  0  0  0  0  0  0  0  0  0  0  0
    1.1327   -2.5324   -0.1432 H   0  0  0  0  0  0  0  0  0  0  0  0
   -0.4171   -2.5486   -1.0185 H   0  0  0  0  0  0  0  0  0  0  0  0
    3.1132   -2.6872   -3.2695 H   0  0  0  0  0  0  0  0  0  0  0  0
    3.1867   -1.9647   -1.6445 H   0  0  0  0  0  0  0  0  0  0  0  0
    2.7946   -4.1953   -0.6349 H   0  0  0  0  0  0  0  0  0  0  0  0
    2.7212   -4.9178   -2.2599 H   0  0  0  0  0  0  0  0  0  0  0  0
    4.7218   -5.1113   -3.6253 H   0  0  0  0  0  0  0  0  0  0  0  0
    7.1758   -5.3134   -3.6464 H   0  0  0  0  0  0  0  0  0  0  0  0
    8.4901   -4.5575   -1.7063 H   0  0  0  0  0  0  0  0  0  0  0  0
    7.3506   -3.5986    0.2547 H   0  0  0  0  0  0  0  0  0  0  0  0
    4.8969   -3.3923    0.2739 H   0  0  0  0  0  0  0  0  0  0  0  0
   -1.5433   -0.9556   -3.6052 H   0  0  0  0  0  0  0  0  0  0  0  0
   -1.7612    1.0832   -4.9660 H   0  0  0  0  0  0  0  0  0  0  0  0
    0.7644    3.0345   -8.2849 H   0  0  0  0  0  0  0  0  0  0  0  0
    1.7545    2.7347   -6.8329 H   0  0  0  0  0  0  0  0  0  0  0  0
    0.9910    0.6410   -8.9299 H   0  0  0  0  0  0  0  0  0  0  0  0
    2.5937    1.4036   -8.7616 H   0  0  0  0  0  0  0  0  0  0  0  0
    2.0567   -1.9565   -5.6598 H   0  0  0  0  0  0  0  0  0  0  0  0
  1  2  1  0
  1 28  1  6
  1 29  1  0
  1 30  1  0
  2  3  1  0
  2 31  1  0
  3  4  2  0
  3  5  1  0
  5  6  1  0
  5 32  1  1
  5 33  1  0
  6  7  1  0
 15  6  1  1
  7  8  1  0
  7 34  1  6
  7 35  1  0
  8  9  1  0
  8 36  1  1
  8 37  1  0
  9 14  2  0
  9 10  1  0
 10 11  2  0
 10 38  1  0
 11 12  1  0
 11 39  1  0
 12 13  2  0
 12 40  1  0
 13 14  1  0
 13 41  1  0
 14 42  1  0
 15 16  2  0
 15 17  2  0
 15 18  1  0
 18 27  2  0
 18 19  1  0
 19 20  2  0
 19 43  1  0
 20 21  1  0
 20 44  1  0
 21 26  2  0
 21 22  1  0
 22 23  1  0
 23 24  1  0
 23 45  1  6
 23 46  1  0
 24 25  1  0
 24 47  1  6
 24 48  1  0
 25 26  1  0
 26 27  1  0
 27 49  1  0
M  END
$$$$
