ZINC000154173577
     RDKit          3D

 38 40  0  0  1  0  0  0  0  0999 V2000
   -0.8996    4.0825    2.4658 O   0  0  0  0  0  0  0  0  0  0  0  0
   -1.1621    3.5423    1.4122 C   0  0  0  0  0  0  0  0  0  0  0  0
   -0.9108    4.2007    0.2797 N   0  0  0  0  0  0  0  0  0  0  0  0
   -1.2551    3.7186   -1.0508 C   0  0  1  0  0  0  0  0  0  0  0  0
   -1.4283    2.1985   -1.0491 C   0  0  1  0  0  0  0  0  0  0  0  0
   -2.2684    1.8329    0.1038 N   0  0  0  0  0  0  0  0  0  0  0  0
   -3.7312    1.0836   -0.0990 S   0  0  1  0  0  0  0  0  0  0  0  0
   -4.5172    1.5488    0.9895 O   0  0  0  0  0  0  0  0  0  0  0  0
   -4.0922    1.3774   -1.4416 O   0  0  0  0  0  0  0  0  0  0  0  0
   -3.3648   -0.6830    0.0896 C   0  0  1  0  0  0  0  0  0  0  0  0
   -3.9162   -1.3905    1.3291 C   0  0  1  0  0  0  0  0  0  0  0  0
   -4.5306   -1.6646   -0.0451 C   0  0  1  0  0  0  0  0  0  0  0  0
   -1.7504    2.1581    1.4425 C   0  0  2  0  0  0  0  0  0  0  0  0
   -0.9846    1.4350    1.7231 H   0  0  0  0  0  0  0  0  0  0  0  0
   -2.8761    2.1151    2.4435 C   0  0  0  0  0  0  0  0  0  0  0  0
   -3.5611    3.2724    2.7633 C   0  0  0  0  0  0  0  0  0  0  0  0
   -4.5937    3.2331    3.6815 C   0  0  0  0  0  0  0  0  0  0  0  0
   -4.9416    2.0363    4.2795 C   0  0  0  0  0  0  0  0  0  0  0  0
   -6.0669    1.9935    5.2809 C   0  0  1  0  0  0  0  0  0  0  0  0
   -7.2726    1.7429    4.6170 F   0  0  0  0  0  0  0  0  0  0  0  0
   -5.8259    0.9758    6.2101 F   0  0  0  0  0  0  0  0  0  0  0  0
   -6.1470    3.2221    5.9452 F   0  0  0  0  0  0  0  0  0  0  0  0
   -4.2574    0.8788    3.9587 C   0  0  0  0  0  0  0  0  0  0  0  0
   -3.2273    0.9175    3.0376 C   0  0  0  0  0  0  0  0  0  0  0  0
   -0.4681    5.0612    0.3471 H   0  0  0  0  0  0  0  0  0  0  0  0
   -2.1863    4.1855   -1.3718 H   0  0  0  0  0  0  0  0  0  0  0  0
   -0.4608    3.9884   -1.7468 H   0  0  0  0  0  0  0  0  0  0  0  0
   -1.9136    1.8827   -1.9726 H   0  0  0  0  0  0  0  0  0  0  0  0
   -0.4542    1.7174   -0.9617 H   0  0  0  0  0  0  0  0  0  0  0  0
   -2.3915   -1.0036   -0.2821 H   0  0  0  0  0  0  0  0  0  0  0  0
   -3.3056   -2.1766    1.7732 H   0  0  0  0  0  0  0  0  0  0  0  0
   -4.4991   -0.7944    2.0312 H   0  0  0  0  0  0  0  0  0  0  0  0
   -5.5178   -1.2489   -0.2469 H   0  0  0  0  0  0  0  0  0  0  0  0
   -4.3243   -2.6311   -0.5049 H   0  0  0  0  0  0  0  0  0  0  0  0
   -3.2893    4.2074    2.2960 H   0  0  0  0  0  0  0  0  0  0  0  0
   -5.1284    4.1374    3.9318 H   0  0  0  0  0  0  0  0  0  0  0  0
   -4.5294   -0.0563    4.4257 H   0  0  0  0  0  0  0  0  0  0  0  0
   -2.6928    0.0131    2.7870 H   0  0  0  0  0  0  0  0  0  0  0  0
  1  2  2  0
  2 13  1  0
  2  3  1  0
  3  4  1  0
  3 25  1  0
  4  5  1  0
  4 26  1  6
  4 27  1  0
  5  6  1  0
  5 28  1  6
  5 29  1  0
  7  6  1  1
  6 13  1  0
  7  8  2  0
  7  9  2  0
  7 10  1  0
 10 12  1  0
 10 11  1  0
 10 30  1  6
 11 12  1  0
 11 31  1  1
 11 32  1  0
 12 33  1  1
 12 34  1  0
 13 14  1  1
 13 15  1  0
 15 24  2  0
 15 16  1  0
 16 17  2  0
 16 35  1  0
 17 18  1  0
 17 36  1  0
 18 19  1  0
 18 23  2  0
 19 20  1  6
 19 21  1  0
 19 22  1  0
 23 24  1  0
 23 37  1  0
 24 38  1  0
M  END
$$$$
