ZINC000072134728
     RDKit          3D

 47 48  0  0  1  0  0  0  0  0999 V2000
   -0.0187    1.5258    0.0104 C   0  0  1  0  0  0  0  0  0  0  0  0
    0.0021   -0.0041    0.0020 C   0  0  1  0  0  0  0  0  0  0  0  0
    0.7421   -0.5109    1.2415 C   0  0  1  0  0  0  0  0  0  0  0  0
   -1.3386   -0.4987    0.0122 O   0  0  0  0  0  0  0  0  0  0  0  0
   -1.8963   -0.6929   -1.2891 C   0  0  1  0  0  0  0  0  0  0  0  0
   -3.3046   -1.2135   -1.1594 C   0  0  0  0  0  0  0  0  0  0  0  0
   -3.7834   -1.3999   -0.0609 O   0  0  0  0  0  0  0  0  0  0  0  0
   -4.0319   -1.4720   -2.2643 N   0  0  0  0  0  0  0  0  0  0  0  0
   -3.4634   -1.2569   -3.6020 C   0  0  1  0  0  0  0  0  0  0  0  0
   -3.6098   -2.5480   -4.4133 C   0  0  1  0  0  0  0  0  0  0  0  0
   -5.0779   -2.9803   -4.4163 C   0  0  1  0  0  0  0  0  0  0  0  0
   -5.5328   -3.2572   -2.9816 C   0  0  2  0  0  0  0  0  0  0  0  0
   -4.9056   -4.0343   -2.5446 H   0  0  0  0  0  0  0  0  0  0  0  0
   -6.9687   -3.7146   -2.9886 C   0  0  0  0  0  0  0  0  0  0  0  0
   -7.7017   -3.3970   -3.9008 O   0  0  0  0  0  0  0  0  0  0  0  0
   -7.4813   -4.5467   -1.8883 C   0  0  0  0  0  0  0  0  0  0  0  0
   -6.6406   -4.9104   -0.8315 C   0  0  0  0  0  0  0  0  0  0  0  0
   -7.1283   -5.6903    0.1956 C   0  0  0  0  0  0  0  0  0  0  0  0
   -8.4460   -6.1135    0.1824 C   0  0  0  0  0  0  0  0  0  0  0  0
   -8.9709   -6.9656    1.3090 C   0  0  1  0  0  0  0  0  0  0  0  0
   -9.4891   -6.1421    2.3143 F   0  0  0  0  0  0  0  0  0  0  0  0
   -9.9809   -7.8052    0.8272 F   0  0  0  0  0  0  0  0  0  0  0  0
   -7.9300   -7.7406    1.8316 F   0  0  0  0  0  0  0  0  0  0  0  0
   -9.2843   -5.7578   -0.8599 C   0  0  0  0  0  0  0  0  0  0  0  0
   -8.8132   -4.9732   -1.8913 C   0  0  0  0  0  0  0  0  0  0  0  0
   -5.4061   -1.9799   -2.1540 C   0  0  1  0  0  0  0  0  0  0  0  0
    1.0039    1.9031    0.0027 H   0  0  0  0  0  0  0  0  0  0  0  0
   -0.5459    1.8868   -0.8726 H   0  0  0  0  0  0  0  0  0  0  0  0
   -0.5289    1.8773    0.9072 H   0  0  0  0  0  0  0  0  0  0  0  0
    0.5123   -0.3556   -0.8948 H   0  0  0  0  0  0  0  0  0  0  0  0
    0.2319   -0.1594    2.1383 H   0  0  0  0  0  0  0  0  0  0  0  0
    0.7568   -1.6008    1.2356 H   0  0  0  0  0  0  0  0  0  0  0  0
    1.7647   -0.1336    1.2338 H   0  0  0  0  0  0  0  0  0  0  0  0
   -1.9077    0.2563   -1.8248 H   0  0  0  0  0  0  0  0  0  0  0  0
   -1.2917   -1.4136   -1.8397 H   0  0  0  0  0  0  0  0  0  0  0  0
   -3.9988   -0.4491   -4.1009 H   0  0  0  0  0  0  0  0  0  0  0  0
   -2.4082   -0.9986   -3.5134 H   0  0  0  0  0  0  0  0  0  0  0  0
   -3.2798   -2.3735   -5.4374 H   0  0  0  0  0  0  0  0  0  0  0  0
   -3.0007   -3.3318   -3.9629 H   0  0  0  0  0  0  0  0  0  0  0  0
   -5.6894   -2.1859   -4.8442 H   0  0  0  0  0  0  0  0  0  0  0  0
   -5.1887   -3.8853   -5.0135 H   0  0  0  0  0  0  0  0  0  0  0  0
   -5.6119   -4.5815   -0.8202 H   0  0  0  0  0  0  0  0  0  0  0  0
   -6.4804   -5.9720    1.0124 H   0  0  0  0  0  0  0  0  0  0  0  0
  -10.3113   -6.0919   -0.8631 H   0  0  0  0  0  0  0  0  0  0  0  0
   -9.4685   -4.6964   -2.7039 H   0  0  0  0  0  0  0  0  0  0  0  0
   -5.6344   -2.1965   -1.1104 H   0  0  0  0  0  0  0  0  0  0  0  0
   -6.0987   -1.2285   -2.5334 H   0  0  0  0  0  0  0  0  0  0  0  0
  1  2  1  0
  1 27  1  6
  1 28  1  0
  1 29  1  0
  2  3  1  0
  2  4  1  0
  2 30  1  6
  3 31  1  1
  3 32  1  0
  3 33  1  0
  4  5  1  0
  5  6  1  0
  5 34  1  6
  5 35  1  0
  6  7  2  0
  6  8  1  0
  8 26  1  0
  8  9  1  0
  9 10  1  0
  9 36  1  6
  9 37  1  0
 10 11  1  0
 10 38  1  6
 10 39  1  0
 11 12  1  0
 11 40  1  6
 11 41  1  0
 12 13  1  1
 12 14  1  0
 12 26  1  0
 14 15  2  0
 14 16  1  0
 16 25  2  0
 16 17  1  0
 17 18  2  0
 17 42  1  0
 18 19  1  0
 18 43  1  0
 19 20  1  0
 19 24  2  0
 20 21  1  1
 20 22  1  0
 20 23  1  0
 24 25  1  0
 24 44  1  0
 25 45  1  0
 26 46  1  1
 26 47  1  0
M  END
$$$$
