ZINC000009441642
     RDKit          3D

 50 52  0  0  1  0  0  0  0  0999 V2000
    0.7268   -0.4455    1.4437 C   0  0  1  0  0  0  0  0  0  0  0  0
   -0.1813    0.5380    2.1846 C   0  0  1  0  0  0  0  0  0  0  0  0
   -0.1594    1.5038    1.6797 H   0  0  0  0  0  0  0  0  0  0  0  0
   -1.5923    0.0087    2.1954 C   0  0  0  0  0  0  0  0  0  0  0  0
   -2.1483   -0.2143    3.2500 O   0  0  0  0  0  0  0  0  0  0  0  0
   -2.2363   -0.2169    1.0331 N   0  0  0  0  0  0  0  0  0  0  0  0
   -3.5087   -0.7989    1.0398 C   0  0  0  0  0  0  0  0  0  0  0  0
   -3.8790   -1.6738    0.0270 C   0  0  0  0  0  0  0  0  0  0  0  0
   -5.1357   -2.2466    0.0365 C   0  0  0  0  0  0  0  0  0  0  0  0
   -6.0250   -1.9493    1.0528 C   0  0  0  0  0  0  0  0  0  0  0  0
   -7.6276   -2.6817    1.0609 S   0  0  1  0  0  0  0  0  0  0  0  0
   -8.4581   -1.8214    1.8286 O   0  0  0  0  0  0  0  0  0  0  0  0
   -7.9121   -3.0395   -0.2845 O   0  0  0  0  0  0  0  0  0  0  0  0
   -7.5140   -4.1002    1.9080 N   0  0  0  0  0  0  0  0  0  0  0  0
   -7.1880   -5.4153    1.3372 C   0  0  1  0  0  0  0  0  0  0  0  0
   -7.2219   -6.4375    2.4928 C   0  0  1  0  0  0  0  0  0  0  0  0
   -8.1187   -5.7387    3.5486 C   0  0  1  0  0  0  0  0  0  0  0  0
   -7.7168   -4.2523    3.3603 C   0  0  1  0  0  0  0  0  0  0  0  0
   -5.6592   -1.0788    2.0631 C   0  0  0  0  0  0  0  0  0  0  0  0
   -4.4019   -0.5072    2.0624 C   0  0  0  0  0  0  0  0  0  0  0  0
    0.2914    0.6964    3.5622 N   0  0  0  0  0  0  0  0  0  0  0  0
    0.6624    1.9241    4.0075 C   0  0  0  0  0  0  0  0  0  0  0  0
    1.1028    2.0952    5.2758 C   0  0  0  0  0  0  0  0  0  0  0  0
    1.5108    3.4648    5.7541 C   0  0  1  0  0  0  0  0  0  0  0  0
    0.4307    4.0734    6.4022 F   0  0  0  0  0  0  0  0  0  0  0  0
    2.5832    3.3474    6.6448 F   0  0  0  0  0  0  0  0  0  0  0  0
    1.8974    4.2451    4.6591 F   0  0  0  0  0  0  0  0  0  0  0  0
    1.1786    0.9974    6.1444 C   0  0  0  0  0  0  0  0  0  0  0  0
    0.8050   -0.2352    5.6955 C   0  0  0  0  0  0  0  0  0  0  0  0
    0.3476   -0.3764    4.3741 C   0  0  0  0  0  0  0  0  0  0  0  0
    0.0101   -1.4737    3.9594 O   0  0  0  0  0  0  0  0  0  0  0  0
    1.7473   -0.0626    1.4360 H   0  0  0  0  0  0  0  0  0  0  0  0
    0.7049   -1.4113    1.9487 H   0  0  0  0  0  0  0  0  0  0  0  0
    0.3751   -0.5633    0.4188 H   0  0  0  0  0  0  0  0  0  0  0  0
   -1.8177    0.0243    0.1920 H   0  0  0  0  0  0  0  0  0  0  0  0
   -3.1852   -1.9058   -0.7674 H   0  0  0  0  0  0  0  0  0  0  0  0
   -5.4243   -2.9271   -0.7509 H   0  0  0  0  0  0  0  0  0  0  0  0
   -7.9262   -5.6849    0.5820 H   0  0  0  0  0  0  0  0  0  0  0  0
   -6.1927   -5.3904    0.8934 H   0  0  0  0  0  0  0  0  0  0  0  0
   -7.6709   -7.3751    2.1652 H   0  0  0  0  0  0  0  0  0  0  0  0
   -6.2202   -6.6058    2.8883 H   0  0  0  0  0  0  0  0  0  0  0  0
   -9.1749   -5.8924    3.3274 H   0  0  0  0  0  0  0  0  0  0  0  0
   -7.8779   -6.0822    4.5547 H   0  0  0  0  0  0  0  0  0  0  0  0
   -6.7957   -4.0368    3.9018 H   0  0  0  0  0  0  0  0  0  0  0  0
   -8.5190   -3.5965    3.6986 H   0  0  0  0  0  0  0  0  0  0  0  0
   -6.3560   -0.8487    2.8555 H   0  0  0  0  0  0  0  0  0  0  0  0
   -4.1168    0.1726    2.8517 H   0  0  0  0  0  0  0  0  0  0  0  0
    0.6060    2.7732    3.3424 H   0  0  0  0  0  0  0  0  0  0  0  0
    1.5294    1.1261    7.1578 H   0  0  0  0  0  0  0  0  0  0  0  0
    0.8563   -1.0929    6.3497 H   0  0  0  0  0  0  0  0  0  0  0  0
  1  2  1  0
  1 32  1  6
  1 33  1  0
  1 34  1  0
  2  3  1  6
  2  4  1  0
  2 21  1  0
  4  5  2  0
  4  6  1  0
  6  7  1  0
  6 35  1  0
  7 20  2  0
  7  8  1  0
  8  9  2  0
  8 36  1  0
  9 10  1  0
  9 37  1  0
 10 11  1  0
 10 19  2  0
 11 12  2  0
 11 13  2  0
 11 14  1  1
 14 18  1  0
 14 15  1  0
 15 16  1  0
 15 38  1  6
 15 39  1  0
 16 17  1  0
 16 40  1  6
 16 41  1  0
 17 18  1  0
 17 42  1  6
 17 43  1  0
 18 44  1  1
 18 45  1  0
 19 20  1  0
 19 46  1  0
 20 47  1  0
 21 30  1  0
 21 22  1  0
 22 23  2  0
 22 48  1  0
 23 24  1  0
 23 28  1  0
 24 25  1  1
 24 26  1  0
 24 27  1  0
 28 29  2  0
 28 49  1  0
 29 30  1  0
 29 50  1  0
 30 31  2  0
M  END
$$$$
