ZINC000007309543
     RDKit          3D

 46 49  0  0  1  0  0  0  0  0999 V2000
    0.0021   -0.0041    0.0020 O   0  0  0  0  0  0  0  0  0  0  0  0
   -0.0172    1.4168    0.0098 S   0  0  1  0  0  0  0  0  0  0  0  0
    1.1617    2.2101    0.0028 O   0  0  0  0  0  0  0  0  0  0  0  0
   -0.9567    1.9094   -1.3970 C   0  0  0  0  0  0  0  0  0  0  0  0
   -1.8848    1.0442   -1.9458 C   0  0  0  0  0  0  0  0  0  0  0  0
   -2.6219    1.4307   -3.0496 C   0  0  0  0  0  0  0  0  0  0  0  0
   -2.4313    2.6825   -3.6042 C   0  0  0  0  0  0  0  0  0  0  0  0
   -3.2345    3.1036   -4.8078 C   0  0  1  0  0  0  0  0  0  0  0  0
   -4.4138    3.7273   -4.3864 F   0  0  0  0  0  0  0  0  0  0  0  0
   -2.4843    3.9973   -5.5796 F   0  0  0  0  0  0  0  0  0  0  0  0
   -3.5510    1.9771   -5.5746 F   0  0  0  0  0  0  0  0  0  0  0  0
   -1.5042    3.5481   -3.0546 C   0  0  0  0  0  0  0  0  0  0  0  0
   -0.7699    3.1631   -1.9485 C   0  0  0  0  0  0  0  0  0  0  0  0
   -0.8748    1.8654    1.3536 N   0  0  0  0  0  0  0  0  0  0  0  0
   -0.7685    3.1619    2.0474 C   0  0  1  0  0  0  0  0  0  0  0  0
   -1.2409    2.8768    3.4949 C   0  0  1  0  0  0  0  0  0  0  0  0
   -2.3841    1.8558    3.2541 C   0  0  1  0  0  0  0  0  0  0  0  0
   -1.8728    1.0392    2.0485 C   0  0  1  0  0  0  0  0  0  0  0  0
   -1.4065    0.1174    2.3961 H   0  0  0  0  0  0  0  0  0  0  0  0
   -3.0190    0.7168    1.1247 C   0  0  0  0  0  0  0  0  0  0  0  0
   -3.4929    1.6780    0.2519 C   0  0  0  0  0  0  0  0  0  0  0  0
   -4.5456    1.3868   -0.5955 C   0  0  0  0  0  0  0  0  0  0  0  0
   -5.1287    0.1289   -0.5722 C   0  0  0  0  0  0  0  0  0  0  0  0
   -6.1697   -0.1406   -1.4065 O   0  0  0  0  0  0  0  0  0  0  0  0
   -6.4843   -1.5213   -1.6177 C   0  0  1  0  0  0  0  0  0  0  0  0
   -6.4992   -2.2251   -0.2541 C   0  0  1  0  0  0  0  0  0  0  0  0
   -5.2039   -2.0815    0.3388 O   0  0  0  0  0  0  0  0  0  0  0  0
   -4.6494   -0.8390    0.3030 C   0  0  0  0  0  0  0  0  0  0  0  0
   -3.5908   -0.5415    1.1477 C   0  0  0  0  0  0  0  0  0  0  0  0
   -2.0336    0.0662   -1.5125 H   0  0  0  0  0  0  0  0  0  0  0  0
   -3.3464    0.7545   -3.4788 H   0  0  0  0  0  0  0  0  0  0  0  0
   -1.3556    4.5263   -3.4877 H   0  0  0  0  0  0  0  0  0  0  0  0
   -0.0456    3.8394   -1.5191 H   0  0  0  0  0  0  0  0  0  0  0  0
    0.2648    3.5088    2.0469 H   0  0  0  0  0  0  0  0  0  0  0  0
   -1.4174    3.8993    1.5749 H   0  0  0  0  0  0  0  0  0  0  0  0
   -0.4401    2.4342    4.0872 H   0  0  0  0  0  0  0  0  0  0  0  0
   -1.6196    3.7830    3.9679 H   0  0  0  0  0  0  0  0  0  0  0  0
   -2.5200    1.2163    4.1263 H   0  0  0  0  0  0  0  0  0  0  0  0
   -3.3124    2.3685    3.0022 H   0  0  0  0  0  0  0  0  0  0  0  0
   -3.0403    2.6584    0.2321 H   0  0  0  0  0  0  0  0  0  0  0  0
   -4.9145    2.1399   -1.2761 H   0  0  0  0  0  0  0  0  0  0  0  0
   -7.4646   -1.6074   -2.0865 H   0  0  0  0  0  0  0  0  0  0  0  0
   -5.7288   -1.9766   -2.2581 H   0  0  0  0  0  0  0  0  0  0  0  0
   -7.2505   -1.7659    0.3884 H   0  0  0  0  0  0  0  0  0  0  0  0
   -6.7266   -3.2826   -0.3887 H   0  0  0  0  0  0  0  0  0  0  0  0
   -3.2154   -1.2924    1.8272 H   0  0  0  0  0  0  0  0  0  0  0  0
  1  2  2  0
  2  3  2  0
  2  4  1  0
  2 14  1  1
  4 13  2  0
  4  5  1  0
  5  6  2  0
  5 30  1  0
  6  7  1  0
  6 31  1  0
  7  8  1  0
  7 12  2  0
  8  9  1  1
  8 10  1  0
  8 11  1  0
 12 13  1  0
 12 32  1  0
 13 33  1  0
 14 18  1  0
 14 15  1  0
 15 16  1  0
 15 34  1  1
 15 35  1  0
 16 17  1  0
 16 36  1  1
 16 37  1  0
 17 18  1  0
 17 38  1  1
 17 39  1  0
 18 19  1  1
 18 20  1  0
 20 29  2  0
 20 21  1  0
 21 22  2  0
 21 40  1  0
 22 23  1  0
 22 41  1  0
 23 28  2  0
 23 24  1  0
 24 25  1  0
 25 26  1  0
 25 42  1  6
 25 43  1  0
 26 27  1  0
 26 44  1  1
 26 45  1  0
 27 28  1  0
 28 29  1  0
 29 46  1  0
M  END
$$$$
