ZINC000071144686
     RDKit          3D

 39 40  0  0  1  0  0  0  0  0999 V2000
   -0.0178    1.4648    0.0101 C   0  0  1  0  0  0  0  0  0  0  0  0
    0.0021   -0.0041    0.0020 N   0  0  1  0  0  0  0  0  0  0  0  0
    0.4901   -0.3383    0.8195 H   0  0  0  0  0  0  0  0  0  0  0  0
   -0.9445   -0.3533    0.0092 H   0  0  0  0  0  0  0  0  0  0  0  0
    0.6897   -0.4778   -1.2066 C   0  0  1  0  0  0  0  0  0  0  0  0
    0.7104   -2.0077   -1.2150 C   0  0  1  0  0  0  0  0  0  0  0  0
    1.1442   -2.3911   -0.2915 H   0  0  0  0  0  0  0  0  0  0  0  0
   -0.7180   -2.5749   -1.4275 C   0  0  1  0  0  0  0  0  0  0  0  0
   -0.4137   -3.9517   -2.0690 C   0  0  1  0  0  0  0  0  0  0  0  0
    0.7498   -3.7123   -2.9422 N   0  0  0  0  0  0  0  0  0  0  0  0
    1.1661   -4.6173   -4.2650 S   0  0  1  0  0  0  0  0  0  0  0  0
    2.5590   -4.4192   -4.4645 O   0  0  0  0  0  0  0  0  0  0  0  0
    0.5828   -5.8989   -4.0741 O   0  0  0  0  0  0  0  0  0  0  0  0
    0.3576   -3.9054   -5.6594 C   0  0  0  0  0  0  0  0  0  0  0  0
   -0.9084   -4.3309   -6.0160 C   0  0  0  0  0  0  0  0  0  0  0  0
   -1.5427   -3.7724   -7.1099 C   0  0  0  0  0  0  0  0  0  0  0  0
   -0.9112   -2.7881   -7.8469 C   0  0  0  0  0  0  0  0  0  0  0  0
   -1.6025   -2.1796   -9.0398 C   0  0  1  0  0  0  0  0  0  0  0  0
   -2.3469   -1.0681   -8.6305 F   0  0  0  0  0  0  0  0  0  0  0  0
   -0.6460   -1.7800   -9.9794 F   0  0  0  0  0  0  0  0  0  0  0  0
   -2.4562   -3.1258   -9.6169 F   0  0  0  0  0  0  0  0  0  0  0  0
    0.3542   -2.3616   -7.4895 C   0  0  0  0  0  0  0  0  0  0  0  0
    0.9870   -2.9174   -6.3933 C   0  0  0  0  0  0  0  0  0  0  0  0
    1.4829   -2.5365   -2.4419 C   0  0  1  0  0  0  0  0  0  0  0  0
    1.0047    1.8421    0.0024 H   0  0  0  0  0  0  0  0  0  0  0  0
   -0.5450    1.8259   -0.8730 H   0  0  0  0  0  0  0  0  0  0  0  0
   -0.5280    1.8163    0.9069 H   0  0  0  0  0  0  0  0  0  0  0  0
    0.1625   -0.1167   -2.0897 H   0  0  0  0  0  0  0  0  0  0  0  0
    1.7123   -0.1005   -1.2143 H   0  0  0  0  0  0  0  0  0  0  0  0
   -1.2369   -2.6932   -0.4763 H   0  0  0  0  0  0  0  0  0  0  0  0
   -1.2913   -1.9450   -2.1078 H   0  0  0  0  0  0  0  0  0  0  0  0
   -0.1662   -4.6825   -1.2991 H   0  0  0  0  0  0  0  0  0  0  0  0
   -1.2657   -4.2928   -2.6572 H   0  0  0  0  0  0  0  0  0  0  0  0
   -1.4018   -5.0999   -5.4402 H   0  0  0  0  0  0  0  0  0  0  0  0
   -2.5315   -4.1054   -7.3889 H   0  0  0  0  0  0  0  0  0  0  0  0
    0.8475   -1.5923   -8.0651 H   0  0  0  0  0  0  0  0  0  0  0  0
    1.9756   -2.5842   -6.1141 H   0  0  0  0  0  0  0  0  0  0  0  0
    1.5205   -1.7673   -3.2132 H   0  0  0  0  0  0  0  0  0  0  0  0
    2.4937   -2.8250   -2.1536 H   0  0  0  0  0  0  0  0  0  0  0  0
  1  2  1  0
  1 25  1  6
  1 26  1  0
  1 27  1  0
  2  3  1  1
  2  4  1  0
  2  5  1  0
  5  6  1  0
  5 28  1  6
  5 29  1  0
  6  7  1  1
  6 24  1  0
  6  8  1  0
  8  9  1  0
  8 30  1  1
  8 31  1  0
  9 10  1  0
  9 32  1  1
  9 33  1  0
 11 10  1  1
 10 24  1  0
 11 12  2  0
 11 13  2  0
 11 14  1  0
 14 23  2  0
 14 15  1  0
 15 16  2  0
 15 34  1  0
 16 17  1  0
 16 35  1  0
 17 18  1  0
 17 22  2  0
 18 19  1  1
 18 20  1  0
 18 21  1  0
 22 23  1  0
 22 36  1  0
 23 37  1  0
 24 38  1  6
 24 39  1  0
M  CHG  1   2   1
M  END
$$$$
