ZINC000076066611
     RDKit          3D

 43 43  0  0  1  0  0  0  0  0999 V2000
    2.2358   -1.0476   -0.8378 C   0  0  1  0  0  0  0  0  0  0  0  0
    1.9195   -2.5076   -1.1681 C   0  0  1  0  0  0  0  0  0  0  0  0
    0.5475   -2.7765   -0.8725 O   0  0  0  0  0  0  0  0  0  0  0  0
    0.1464   -4.1203   -1.1467 C   0  0  1  0  0  0  0  0  0  0  0  0
    0.7388   -4.5151   -1.9721 H   0  0  0  0  0  0  0  0  0  0  0  0
    0.3674   -4.9825    0.0977 C   0  0  1  0  0  0  0  0  0  0  0  0
   -1.3134   -4.1425   -1.5204 C   0  0  0  0  0  0  0  0  0  0  0  0
   -1.8132   -4.8075   -2.5067 N   0  0  0  0  0  0  0  0  0  0  0  0
   -3.1144   -4.7169   -2.6944 C   0  0  0  0  0  0  0  0  0  0  0  0
   -3.8300   -5.4399   -3.8064 C   0  0  1  0  0  0  0  0  0  0  0  0
   -3.7625   -4.6399   -5.0318 N   0  0  0  0  0  0  0  0  0  0  0  0
   -2.6465   -4.8201   -5.9637 C   0  0  1  0  0  0  0  0  0  0  0  0
   -4.7270   -3.7381   -5.3018 C   0  0  0  0  0  0  0  0  0  0  0  0
   -5.6133   -3.5391   -4.4983 O   0  0  0  0  0  0  0  0  0  0  0  0
   -4.7041   -2.9769   -6.6023 C   0  0  1  0  0  0  0  0  0  0  0  0
   -6.0201   -2.2147   -6.7703 C   0  0  1  0  0  0  0  0  0  0  0  0
   -3.5384   -1.9861   -6.5929 C   0  0  1  0  0  0  0  0  0  0  0  0
   -4.5308   -3.9573   -7.7641 C   0  0  1  0  0  0  0  0  0  0  0  0
   -3.7475   -3.9317   -1.8177 C   0  0  0  0  0  0  0  0  0  0  0  0
   -2.5480   -3.2960   -0.6944 S   0  0  0  0  0  0  0  0  0  0  0  0
    3.2823   -0.8425   -1.0632 H   0  0  0  0  0  0  0  0  0  0  0  0
    1.6005   -0.3940   -1.4355 H   0  0  0  0  0  0  0  0  0  0  0  0
    2.0499   -0.8661    0.2208 H   0  0  0  0  0  0  0  0  0  0  0  0
    2.1054   -2.6891   -2.2267 H   0  0  0  0  0  0  0  0  0  0  0  0
    2.5548   -3.1612   -0.5704 H   0  0  0  0  0  0  0  0  0  0  0  0
    0.0614   -6.0076   -0.1114 H   0  0  0  0  0  0  0  0  0  0  0  0
    1.4232   -4.9665    0.3680 H   0  0  0  0  0  0  0  0  0  0  0  0
   -0.2250   -4.5878    0.9231 H   0  0  0  0  0  0  0  0  0  0  0  0
   -3.3547   -6.4059   -3.9765 H   0  0  0  0  0  0  0  0  0  0  0  0
   -4.8730   -5.5919   -3.5287 H   0  0  0  0  0  0  0  0  0  0  0  0
   -2.8653   -5.6493   -6.6365 H   0  0  0  0  0  0  0  0  0  0  0  0
   -2.5071   -3.9082   -6.5443 H   0  0  0  0  0  0  0  0  0  0  0  0
   -1.7369   -5.0369   -5.4036 H   0  0  0  0  0  0  0  0  0  0  0  0
   -6.1436   -1.5162   -5.9426 H   0  0  0  0  0  0  0  0  0  0  0  0
   -6.0035   -1.6641   -7.7109 H   0  0  0  0  0  0  0  0  0  0  0  0
   -6.8506   -2.9206   -6.7770 H   0  0  0  0  0  0  0  0  0  0  0  0
   -2.6653   -2.4565   -6.1407 H   0  0  0  0  0  0  0  0  0  0  0  0
   -3.3036   -1.6916   -7.6157 H   0  0  0  0  0  0  0  0  0  0  0  0
   -3.8158   -1.1042   -6.0155 H   0  0  0  0  0  0  0  0  0  0  0  0
   -5.3613   -4.6632   -7.7708 H   0  0  0  0  0  0  0  0  0  0  0  0
   -4.5143   -3.4068   -8.7047 H   0  0  0  0  0  0  0  0  0  0  0  0
   -3.5933   -4.5004   -7.6444 H   0  0  0  0  0  0  0  0  0  0  0  0
   -4.8076   -3.7262   -1.7987 H   0  0  0  0  0  0  0  0  0  0  0  0
  1  2  1  0
  1 21  1  1
  1 22  1  0
  1 23  1  0
  2  3  1  0
  2 24  1  6
  2 25  1  0
  3  4  1  0
  4  5  1  6
  4  6  1  0
  4  7  1  0
  6 26  1  6
  6 27  1  0
  6 28  1  0
  7 20  1  0
  7  8  2  0
  8  9  1  0
  9 10  1  0
  9 19  2  0
 10 11  1  0
 10 29  1  6
 10 30  1  0
 11 12  1  0
 11 13  1  0
 12 31  1  6
 12 32  1  0
 12 33  1  0
 13 14  2  0
 15 13  1  1
 15 16  1  0
 15 17  1  0
 15 18  1  0
 16 34  1  1
 16 35  1  0
 16 36  1  0
 17 37  1  1
 17 38  1  0
 17 39  1  0
 18 40  1  6
 18 41  1  0
 18 42  1  0
 19 20  1  0
 19 43  1  0
M  END
$$$$
