ZINC000408609231
     RDKit          3D

 62 64  0  0  1  0  0  0  0  0999 V2000
   -0.0184    1.5028    0.0103 C   0  0  1  0  0  0  0  0  0  0  0  0
    0.0021   -0.0041    0.0020 C   0  0  0  0  0  0  0  0  0  0  0  0
    0.0057   -0.6887   -1.1989 C   0  0  0  0  0  0  0  0  0  0  0  0
    0.0245   -2.0709   -1.2065 C   0  0  0  0  0  0  0  0  0  0  0  0
    0.0400   -2.7685   -0.0132 C   0  0  0  0  0  0  0  0  0  0  0  0
    0.0600   -4.2753   -0.0215 C   0  0  1  0  0  0  0  0  0  0  0  0
    1.4475   -4.7453   -0.0315 N   0  0  0  0  0  0  0  0  0  0  0  0
    2.1835   -4.8824    1.2278 C   0  0  1  0  0  0  0  0  0  0  0  0
    1.8847   -6.2264    1.8405 C   0  0  0  0  0  0  0  0  0  0  0  0
    1.1311   -6.9941    1.2805 O   0  0  0  0  0  0  0  0  0  0  0  0
    2.4548   -6.5752    3.0108 N   0  0  0  0  0  0  0  0  0  0  0  0
    2.1643   -7.8817    3.6065 C   0  0  1  0  0  0  0  0  0  0  0  0
    1.1292   -8.1533    3.3995 H   0  0  0  0  0  0  0  0  0  0  0  0
    3.0978   -8.9349    3.0061 C   0  0  1  0  0  0  0  0  0  0  0  0
    2.3804   -7.8118    5.1196 C   0  0  1  0  0  0  0  0  0  0  0  0
    1.3624   -6.8505    5.7363 C   0  0  1  0  0  0  0  0  0  0  0  0
    1.5753   -6.7816    7.2266 C   0  0  0  0  0  0  0  0  0  0  0  0
    0.9116   -7.6615    8.0609 C   0  0  0  0  0  0  0  0  0  0  0  0
    1.1068   -7.5984    9.4279 C   0  0  0  0  0  0  0  0  0  0  0  0
    1.9661   -6.6556    9.9606 C   0  0  0  0  0  0  0  0  0  0  0  0
    2.6305   -5.7763    9.1261 C   0  0  0  0  0  0  0  0  0  0  0  0
    2.4385   -5.8422    7.7588 C   0  0  0  0  0  0  0  0  0  0  0  0
    2.1840   -5.1215   -1.4662 S   0  0  1  0  0  0  0  0  0  0  0  0
    3.1329   -6.1386   -1.1755 O   0  0  0  0  0  0  0  0  0  0  0  0
    1.1441   -5.2789   -2.4218 O   0  0  0  0  0  0  0  0  0  0  0  0
    3.1081   -3.7066   -1.9649 C   0  0  0  0  0  0  0  0  0  0  0  0
    2.5164   -2.7371   -2.7527 C   0  0  0  0  0  0  0  0  0  0  0  0
    3.2414   -1.6271   -3.1440 C   0  0  0  0  0  0  0  0  0  0  0  0
    4.5580   -1.4863   -2.7470 C   0  0  0  0  0  0  0  0  0  0  0  0
    5.1495   -2.4554   -1.9584 C   0  0  0  0  0  0  0  0  0  0  0  0
    4.4231   -3.5634   -1.5636 C   0  0  0  0  0  0  0  0  0  0  0  0
    0.0378   -2.0839    1.1877 C   0  0  0  0  0  0  0  0  0  0  0  0
    0.0229   -0.7016    1.1953 C   0  0  0  0  0  0  0  0  0  0  0  0
    1.0042    1.8801    0.0026 H   0  0  0  0  0  0  0  0  0  0  0  0
   -0.5455    1.8639   -0.8728 H   0  0  0  0  0  0  0  0  0  0  0  0
   -0.5286    1.8543    0.9071 H   0  0  0  0  0  0  0  0  0  0  0  0
   -0.0064   -0.1436   -2.1312 H   0  0  0  0  0  0  0  0  0  0  0  0
    0.0266   -2.6057   -2.1448 H   0  0  0  0  0  0  0  0  0  0  0  0
   -0.4442   -4.6502    0.8692 H   0  0  0  0  0  0  0  0  0  0  0  0
   -0.4538   -4.6406   -0.9107 H   0  0  0  0  0  0  0  0  0  0  0  0
    3.2531   -4.8011    1.0342 H   0  0  0  0  0  0  0  0  0  0  0  0
    1.8777   -4.0936    1.9151 H   0  0  0  0  0  0  0  0  0  0  0  0
    3.0575   -5.9612    3.4588 H   0  0  0  0  0  0  0  0  0  0  0  0
    2.8816   -9.9070    3.4493 H   0  0  0  0  0  0  0  0  0  0  0  0
    2.9438   -8.9847    1.9282 H   0  0  0  0  0  0  0  0  0  0  0  0
    4.1329   -8.6633    3.2131 H   0  0  0  0  0  0  0  0  0  0  0  0
    2.2508   -8.8043    5.5513 H   0  0  0  0  0  0  0  0  0  0  0  0
    3.3892   -7.4545    5.3264 H   0  0  0  0  0  0  0  0  0  0  0  0
    1.4920   -5.8580    5.3045 H   0  0  0  0  0  0  0  0  0  0  0  0
    0.3536   -7.2078    5.5294 H   0  0  0  0  0  0  0  0  0  0  0  0
    0.2402   -8.3981    7.6448 H   0  0  0  0  0  0  0  0  0  0  0  0
    0.5878   -8.2854   10.0799 H   0  0  0  0  0  0  0  0  0  0  0  0
    2.1181   -6.6058   11.0287 H   0  0  0  0  0  0  0  0  0  0  0  0
    3.3016   -5.0395    9.5423 H   0  0  0  0  0  0  0  0  0  0  0  0
    2.9576   -5.1553    7.1068 H   0  0  0  0  0  0  0  0  0  0  0  0
    1.4877   -2.8470   -3.0629 H   0  0  0  0  0  0  0  0  0  0  0  0
    2.7793   -0.8699   -3.7601 H   0  0  0  0  0  0  0  0  0  0  0  0
    5.1246   -0.6194   -3.0532 H   0  0  0  0  0  0  0  0  0  0  0  0
    6.1782   -2.3457   -1.6485 H   0  0  0  0  0  0  0  0  0  0  0  0
    4.8852   -4.3205   -0.9474 H   0  0  0  0  0  0  0  0  0  0  0  0
    0.0503   -2.6289    2.1200 H   0  0  0  0  0  0  0  0  0  0  0  0
    0.0211   -0.1667    2.1335 H   0  0  0  0  0  0  0  0  0  0  0  0
  1  2  1  0
  1 34  1  6
  1 35  1  0
  1 36  1  0
  2 33  2  0
  2  3  1  0
  3  4  2  0
  3 37  1  0
  4  5  1  0
  4 38  1  0
  5  6  1  0
  5 32  2  0
  6  7  1  0
  6 39  1  1
  6 40  1  0
  7  8  1  0
 23  7  1  1
  8  9  1  0
  8 41  1  6
  8 42  1  0
  9 10  2  0
  9 11  1  0
 11 12  1  0
 11 43  1  0
 12 13  1  1
 12 14  1  0
 12 15  1  0
 14 44  1  1
 14 45  1  0
 14 46  1  0
 15 16  1  0
 15 47  1  1
 15 48  1  0
 16 17  1  0
 16 49  1  6
 16 50  1  0
 17 22  2  0
 17 18  1  0
 18 19  2  0
 18 51  1  0
 19 20  1  0
 19 52  1  0
 20 21  2  0
 20 53  1  0
 21 22  1  0
 21 54  1  0
 22 55  1  0
 23 24  2  0
 23 25  2  0
 23 26  1  0
 26 31  2  0
 26 27  1  0
 27 28  2  0
 27 56  1  0
 28 29  1  0
 28 57  1  0
 29 30  2  0
 29 58  1  0
 30 31  1  0
 30 59  1  0
 31 60  1  0
 32 33  1  0
 32 61  1  0
 33 62  1  0
M  END
$$$$
