ZINC000002884207
     RDKit          3D

 57 59  0  0  0  0  0  0  0  0999 V2000
   -9.0479   -6.1174    4.1558 C   0  0  1  0  0  0  0  0  0  0  0  0
   -9.2316   -4.7919    3.6545 O   0  0  0  0  0  0  0  0  0  0  0  0
   -8.2799   -4.3143    2.8100 C   0  0  0  0  0  0  0  0  0  0  0  0
   -7.1948   -5.1071    2.4665 C   0  0  0  0  0  0  0  0  0  0  0  0
   -6.2288   -4.6194    1.6074 C   0  0  0  0  0  0  0  0  0  0  0  0
   -6.3429   -3.3422    1.0907 C   0  0  0  0  0  0  0  0  0  0  0  0
   -5.1090   -2.7230   -0.0042 S   0  0  1  0  0  0  0  0  0  0  0  0
   -5.1590   -1.3063    0.0950 O   0  0  0  0  0  0  0  0  0  0  0  0
   -3.9325   -3.4787    0.2486 O   0  0  0  0  0  0  0  0  0  0  0  0
   -5.5858   -3.1011   -1.5443 N   0  0  0  0  0  0  0  0  0  0  0  0
   -5.2909   -4.4249   -2.0982 C   0  0  1  0  0  0  0  0  0  0  0  0
   -6.4777   -5.3308   -1.8937 C   0  0  0  0  0  0  0  0  0  0  0  0
   -7.4720   -4.9119   -1.3398 O   0  0  0  0  0  0  0  0  0  0  0  0
   -6.4342   -6.6065   -2.3263 N   0  0  0  0  0  0  0  0  0  0  0  0
   -7.5880   -7.4871   -2.1276 C   0  0  1  0  0  0  0  0  0  0  0  0
   -8.5686   -7.3485   -3.3103 C   0  0  1  0  0  0  0  0  0  0  0  0
   -8.1865   -8.5117   -4.2589 C   0  0  1  0  0  0  0  0  0  0  0  0
   -7.8512   -9.6595   -3.2744 C   0  0  1  0  0  0  0  0  0  0  0  0
   -7.1318   -8.9565   -2.1047 C   0  0  1  0  0  0  0  0  0  0  0  0
   -6.3025   -2.1118   -2.3529 C   0  0  1  0  0  0  0  0  0  0  0  0
   -5.3245   -1.3823   -3.2373 C   0  0  0  0  0  0  0  0  0  0  0  0
   -4.7921   -0.1736   -2.8293 C   0  0  0  0  0  0  0  0  0  0  0  0
   -3.8950    0.4956   -3.6406 C   0  0  0  0  0  0  0  0  0  0  0  0
   -3.5299   -0.0441   -4.8598 C   0  0  0  0  0  0  0  0  0  0  0  0
   -4.0616   -1.2533   -5.2674 C   0  0  0  0  0  0  0  0  0  0  0  0
   -4.9555   -1.9245   -4.4542 C   0  0  0  0  0  0  0  0  0  0  0  0
   -7.4240   -2.5500    1.4313 C   0  0  0  0  0  0  0  0  0  0  0  0
   -8.3950   -3.0349    2.2855 C   0  0  0  0  0  0  0  0  0  0  0  0
   -9.5732   -2.1712    2.6558 C   0  0  1  0  0  0  0  0  0  0  0  0
   -9.8762   -6.3741    4.8163 H   0  0  0  0  0  0  0  0  0  0  0  0
   -9.0163   -6.8198    3.3229 H   0  0  0  0  0  0  0  0  0  0  0  0
   -8.1112   -6.1694    4.7108 H   0  0  0  0  0  0  0  0  0  0  0  0
   -7.1049   -6.1047    2.8705 H   0  0  0  0  0  0  0  0  0  0  0  0
   -5.3838   -5.2363    1.3397 H   0  0  0  0  0  0  0  0  0  0  0  0
   -5.0822   -4.3345   -3.1642 H   0  0  0  0  0  0  0  0  0  0  0  0
   -4.4217   -4.8451   -1.5922 H   0  0  0  0  0  0  0  0  0  0  0  0
   -5.6390   -6.9416   -2.7693 H   0  0  0  0  0  0  0  0  0  0  0  0
   -8.0911   -7.2378   -1.1933 H   0  0  0  0  0  0  0  0  0  0  0  0
   -9.5976   -7.4579   -2.9677 H   0  0  0  0  0  0  0  0  0  0  0  0
   -8.4317   -6.3889   -3.8090 H   0  0  0  0  0  0  0  0  0  0  0  0
   -9.0283   -8.7830   -4.8961 H   0  0  0  0  0  0  0  0  0  0  0  0
   -7.3149   -8.2504   -4.8590 H   0  0  0  0  0  0  0  0  0  0  0  0
   -8.7642  -10.1422   -2.9260 H   0  0  0  0  0  0  0  0  0  0  0  0
   -7.1906  -10.3865   -3.7469 H   0  0  0  0  0  0  0  0  0  0  0  0
   -6.0520   -9.0144   -2.2416 H   0  0  0  0  0  0  0  0  0  0  0  0
   -7.4143   -9.4205   -1.1597 H   0  0  0  0  0  0  0  0  0  0  0  0
   -7.0448   -2.6168   -2.9711 H   0  0  0  0  0  0  0  0  0  0  0  0
   -6.8010   -1.3985   -1.6966 H   0  0  0  0  0  0  0  0  0  0  0  0
   -5.0774    0.2481   -1.8768 H   0  0  0  0  0  0  0  0  0  0  0  0
   -3.4796    1.4403   -3.3221 H   0  0  0  0  0  0  0  0  0  0  0  0
   -2.8296    0.4791   -5.4939 H   0  0  0  0  0  0  0  0  0  0  0  0
   -3.7766   -1.6748   -6.2200 H   0  0  0  0  0  0  0  0  0  0  0  0
   -5.3709   -2.8692   -4.7726 H   0  0  0  0  0  0  0  0  0  0  0  0
   -7.5110   -1.5527    1.0260 H   0  0  0  0  0  0  0  0  0  0  0  0
  -10.3803   -2.3318    1.9411 H   0  0  0  0  0  0  0  0  0  0  0  0
   -9.9162   -2.4342    3.6565 H   0  0  0  0  0  0  0  0  0  0  0  0
   -9.2751   -1.1229    2.6378 H   0  0  0  0  0  0  0  0  0  0  0  0
  1  2  1  0
  1 30  1  1
  1 31  1  0
  1 32  1  0
  2  3  1  0
  3 28  2  0
  3  4  1  0
  4  5  2  0
  4 33  1  0
  5  6  1  0
  5 34  1  0
  6  7  1  0
  6 27  2  0
  7  8  2  0
  7  9  2  0
  7 10  1  6
 10 11  1  0
 10 20  1  0
 11 12  1  0
 11 35  1  6
 11 36  1  0
 12 13  2  0
 12 14  1  0
 14 15  1  0
 14 37  1  0
 15 19  1  0
 15 16  1  0
 15 38  1  1
 16 17  1  0
 16 39  1  1
 16 40  1  0
 17 18  1  0
 17 41  1  6
 17 42  1  0
 18 19  1  0
 18 43  1  1
 18 44  1  0
 19 45  1  6
 19 46  1  0
 20 21  1  0
 20 47  1  6
 20 48  1  0
 21 26  2  0
 21 22  1  0
 22 23  2  0
 22 49  1  0
 23 24  1  0
 23 50  1  0
 24 25  2  0
 24 51  1  0
 25 26  1  0
 25 52  1  0
 26 53  1  0
 27 28  1  0
 27 54  1  0
 28 29  1  0
 29 55  1  6
 29 56  1  0
 29 57  1  0
M  END
$$$$
