ZINC000408614103
     RDKit          3D

 70 72  0  0  0  0  0  0  0  0999 V2000
   -0.0173    1.4248    0.0099 C   0  0  1  0  0  0  0  0  0  0  0  0
    0.0021   -0.0041    0.0020 O   0  0  0  0  0  0  0  0  0  0  0  0
    0.6262   -0.6188    1.0422 C   0  0  0  0  0  0  0  0  0  0  0  0
    1.2019    0.1365    2.0506 C   0  0  0  0  0  0  0  0  0  0  0  0
    1.8358   -0.4901    3.1079 C   0  0  0  0  0  0  0  0  0  0  0  0
    1.8971   -1.8698    3.1612 C   0  0  0  0  0  0  0  0  0  0  0  0
    2.7068   -2.6623    4.5107 S   0  0  1  0  0  0  0  0  0  0  0  0
    3.0940   -3.9485    4.0470 O   0  0  0  0  0  0  0  0  0  0  0  0
    3.6271   -1.7166    5.0378 O   0  0  0  0  0  0  0  0  0  0  0  0
    1.5682   -2.9124    5.6869 N   0  0  0  0  0  0  0  0  0  0  0  0
    0.7940   -4.1560    5.7043 C   0  0  1  0  0  0  0  0  0  0  0  0
    1.4605   -5.1586    6.6485 C   0  0  1  0  0  0  0  0  0  0  0  0
    0.6640   -6.4378    6.6664 C   0  0  0  0  0  0  0  0  0  0  0  0
   -0.3603   -6.6015    7.5801 C   0  0  0  0  0  0  0  0  0  0  0  0
   -1.0908   -7.7749    7.5965 C   0  0  0  0  0  0  0  0  0  0  0  0
   -0.7974   -8.7844    6.6989 C   0  0  0  0  0  0  0  0  0  0  0  0
    0.2263   -8.6203    5.7846 C   0  0  0  0  0  0  0  0  0  0  0  0
    0.9541   -7.4452    5.7653 C   0  0  0  0  0  0  0  0  0  0  0  0
    1.3352   -1.8902    6.7101 C   0  0  1  0  0  0  0  0  0  0  0  0
    0.1860   -1.0109    6.2892 C   0  0  0  0  0  0  0  0  0  0  0  0
   -0.3825   -1.2179    5.2380 O   0  0  0  0  0  0  0  0  0  0  0  0
   -0.2101    0.0053    7.0809 N   0  0  0  0  0  0  0  0  0  0  0  0
   -1.3274    0.8600    6.6717 C   0  0  1  0  0  0  0  0  0  0  0  0
   -2.6470    0.2104    7.0926 C   0  0  1  0  0  0  0  0  0  0  0  0
   -3.7682    1.2501    7.0355 C   0  0  1  0  0  0  0  0  0  0  0  0
   -4.1660    1.4914    5.5778 C   0  0  1  0  0  0  0  0  0  0  0  0
   -3.1064    2.3603    4.8974 C   0  0  1  0  0  0  0  0  0  0  0  0
   -2.7133    3.5091    5.8281 C   0  0  1  0  0  0  0  0  0  0  0  0
   -1.2627    3.3266    6.2794 C   0  0  1  0  0  0  0  0  0  0  0  0
   -1.1948    2.2285    7.3427 C   0  0  1  0  0  0  0  0  0  0  0  0
    1.3241   -2.6298    2.1580 C   0  0  0  0  0  0  0  0  0  0  0  0
    0.6830   -2.0084    1.0988 C   0  0  0  0  0  0  0  0  0  0  0  0
    0.1189   -2.7543    0.1114 O   0  0  0  0  0  0  0  0  0  0  0  0
    0.2250   -4.1744    0.2301 C   0  0  1  0  0  0  0  0  0  0  0  0
    1.0053    1.8021    0.0021 H   0  0  0  0  0  0  0  0  0  0  0  0
   -0.5445    1.7859   -0.8732 H   0  0  0  0  0  0  0  0  0  0  0  0
   -0.5275    1.7763    0.9067 H   0  0  0  0  0  0  0  0  0  0  0  0
    1.1560    1.2148    2.0110 H   0  0  0  0  0  0  0  0  0  0  0  0
    2.2843    0.0999    3.8935 H   0  0  0  0  0  0  0  0  0  0  0  0
   -0.2186   -3.9488    6.0504 H   0  0  0  0  0  0  0  0  0  0  0  0
    0.7557   -4.5743    4.6985 H   0  0  0  0  0  0  0  0  0  0  0  0
    2.4731   -5.3658    6.3024 H   0  0  0  0  0  0  0  0  0  0  0  0
    1.4987   -4.7403    7.6543 H   0  0  0  0  0  0  0  0  0  0  0  0
   -0.5895   -5.8129    8.2814 H   0  0  0  0  0  0  0  0  0  0  0  0
   -1.8906   -7.9032    8.3109 H   0  0  0  0  0  0  0  0  0  0  0  0
   -1.3677   -9.7015    6.7122 H   0  0  0  0  0  0  0  0  0  0  0  0
    0.4558   -9.4091    5.0835 H   0  0  0  0  0  0  0  0  0  0  0  0
    1.7539   -7.3170    5.0510 H   0  0  0  0  0  0  0  0  0  0  0  0
    1.0956   -2.3725    7.6577 H   0  0  0  0  0  0  0  0  0  0  0  0
    2.2328   -1.2831    6.8282 H   0  0  0  0  0  0  0  0  0  0  0  0
    0.2445    0.1708    7.9216 H   0  0  0  0  0  0  0  0  0  0  0  0
   -1.3126    0.9835    5.5888 H   0  0  0  0  0  0  0  0  0  0  0  0
   -2.8793   -0.6120    6.4159 H   0  0  0  0  0  0  0  0  0  0  0  0
   -2.5563   -0.1706    8.1098 H   0  0  0  0  0  0  0  0  0  0  0  0
   -4.6313    0.8848    7.5919 H   0  0  0  0  0  0  0  0  0  0  0  0
   -3.4203    2.1842    7.4766 H   0  0  0  0  0  0  0  0  0  0  0  0
   -4.2405    0.5360    5.0586 H   0  0  0  0  0  0  0  0  0  0  0  0
   -5.1296    1.9998    5.5435 H   0  0  0  0  0  0  0  0  0  0  0  0
   -2.2274    1.7549    4.6764 H   0  0  0  0  0  0  0  0  0  0  0  0
   -3.5103    2.7663    3.9700 H   0  0  0  0  0  0  0  0  0  0  0  0
   -2.8124    4.4563    5.2980 H   0  0  0  0  0  0  0  0  0  0  0  0
   -3.3675    3.5105    6.6999 H   0  0  0  0  0  0  0  0  0  0  0  0
   -0.6490    3.0432    5.4244 H   0  0  0  0  0  0  0  0  0  0  0  0
   -0.8922    4.2620    6.6988 H   0  0  0  0  0  0  0  0  0  0  0  0
   -2.0072    2.3633    8.0567 H   0  0  0  0  0  0  0  0  0  0  0  0
   -0.2394    2.2863    7.8642 H   0  0  0  0  0  0  0  0  0  0  0  0
    1.3734   -3.7078    2.2020 H   0  0  0  0  0  0  0  0  0  0  0  0
   -0.2653   -4.6477   -0.6207 H   0  0  0  0  0  0  0  0  0  0  0  0
    1.2767   -4.4600    0.2483 H   0  0  0  0  0  0  0  0  0  0  0  0
   -0.2556   -4.4988    1.1530 H   0  0  0  0  0  0  0  0  0  0  0  0
  1  2  1  0
  1 35  1  6
  1 36  1  0
  1 37  1  0
  2  3  1  0
  3 32  2  0
  3  4  1  0
  4  5  2  0
  4 38  1  0
  5  6  1  0
  5 39  1  0
  6  7  1  0
  6 31  2  0
  7  8  2  0
  7  9  2  0
  7 10  1  1
 10 11  1  0
 10 19  1  0
 11 12  1  0
 11 40  1  1
 11 41  1  0
 12 13  1  0
 12 42  1  6
 12 43  1  0
 13 18  2  0
 13 14  1  0
 14 15  2  0
 14 44  1  0
 15 16  1  0
 15 45  1  0
 16 17  2  0
 16 46  1  0
 17 18  1  0
 17 47  1  0
 18 48  1  0
 19 20  1  0
 19 49  1  1
 19 50  1  0
 20 21  2  0
 20 22  1  0
 22 23  1  0
 22 51  1  0
 23 30  1  0
 23 24  1  0
 23 52  1  6
 24 25  1  0
 24 53  1  6
 24 54  1  0
 25 26  1  0
 25 55  1  1
 25 56  1  0
 26 27  1  0
 26 57  1  6
 26 58  1  0
 27 28  1  0
 27 59  1  6
 27 60  1  0
 28 29  1  0
 28 61  1  6
 28 62  1  0
 29 30  1  0
 29 63  1  6
 29 64  1  0
 30 65  1  1
 30 66  1  0
 31 32  1  0
 31 67  1  0
 32 33  1  0
 33 34  1  0
 34 68  1  6
 34 69  1  0
 34 70  1  0
M  END
$$$$
