ZINC000059444200
     RDKit          3D

 61 63  0  0  0  0  0  0  0  0999 V2000
   -0.0173    1.4248    0.0099 C   0  0  1  0  0  0  0  0  0  0  0  0
    0.0021   -0.0041    0.0020 O   0  0  0  0  0  0  0  0  0  0  0  0
    0.6062   -0.6075   -1.0564 C   0  0  0  0  0  0  0  0  0  0  0  0
    1.1727    0.1587   -2.0618 C   0  0  0  0  0  0  0  0  0  0  0  0
    1.7870   -0.4565   -3.1372 C   0  0  0  0  0  0  0  0  0  0  0  0
    1.8372   -1.8356   -3.2121 C   0  0  0  0  0  0  0  0  0  0  0  0
    2.6209   -2.6134   -4.5852 S   0  0  1  0  0  0  0  0  0  0  0  0
    2.0582   -3.9145   -4.6843 O   0  0  0  0  0  0  0  0  0  0  0  0
    2.5936   -1.6718   -5.6491 O   0  0  0  0  0  0  0  0  0  0  0  0
    4.2145   -2.8222   -4.1864 N   0  0  0  0  0  0  0  0  0  0  0  0
    4.6477   -4.0530   -3.5202 C   0  0  1  0  0  0  0  0  0  0  0  0
    5.1573   -5.0467   -4.5660 C   0  0  1  0  0  0  0  0  0  0  0  0
    5.6029   -6.3128   -3.8807 C   0  0  0  0  0  0  0  0  0  0  0  0
    6.9100   -6.4423   -3.4498 C   0  0  0  0  0  0  0  0  0  0  0  0
    7.3188   -7.6036   -2.8212 C   0  0  0  0  0  0  0  0  0  0  0  0
    6.4203   -8.6353   -2.6231 C   0  0  0  0  0  0  0  0  0  0  0  0
    5.1129   -8.5054   -3.0531 C   0  0  0  0  0  0  0  0  0  0  0  0
    4.7031   -7.3424   -3.6778 C   0  0  0  0  0  0  0  0  0  0  0  0
    5.1912   -1.7762   -4.4997 C   0  0  1  0  0  0  0  0  0  0  0  0
    5.3790   -0.8878   -3.2970 C   0  0  0  0  0  0  0  0  0  0  0  0
    4.7582   -1.1068   -2.2784 O   0  0  0  0  0  0  0  0  0  0  0  0
    6.2369    0.1502   -3.3533 N   0  0  0  0  0  0  0  0  0  0  0  0
    6.4195    1.0138   -2.1841 C   0  0  1  0  0  0  0  0  0  0  0  0
    7.5181    0.4370   -1.2675 C   0  0  1  0  0  0  0  0  0  0  0  0
    8.8014    1.1945   -1.6897 C   0  0  1  0  0  0  0  0  0  0  0  0
    8.2784    2.6263   -1.9647 C   0  0  1  0  0  0  0  0  0  0  0  0
    6.9029    2.4058   -2.6274 C   0  0  1  0  0  0  0  0  0  0  0  0
    1.2740   -2.6064   -2.2116 C   0  0  0  0  0  0  0  0  0  0  0  0
    0.6617   -1.9965   -1.1290 C   0  0  0  0  0  0  0  0  0  0  0  0
    0.1074   -2.7530   -0.1443 O   0  0  0  0  0  0  0  0  0  0  0  0
    0.1928   -4.1720   -0.2904 C   0  0  1  0  0  0  0  0  0  0  0  0
    1.0053    1.8021    0.0021 H   0  0  0  0  0  0  0  0  0  0  0  0
   -0.5445    1.7859   -0.8732 H   0  0  0  0  0  0  0  0  0  0  0  0
   -0.5275    1.7763    0.9067 H   0  0  0  0  0  0  0  0  0  0  0  0
    1.1343    1.2366   -2.0060 H   0  0  0  0  0  0  0  0  0  0  0  0
    2.2283    0.1421   -3.9204 H   0  0  0  0  0  0  0  0  0  0  0  0
    5.4482   -3.8231   -2.8170 H   0  0  0  0  0  0  0  0  0  0  0  0
    3.8064   -4.4906   -2.9827 H   0  0  0  0  0  0  0  0  0  0  0  0
    4.3569   -5.2766   -5.2692 H   0  0  0  0  0  0  0  0  0  0  0  0
    5.9986   -4.6091   -5.1034 H   0  0  0  0  0  0  0  0  0  0  0  0
    7.6120   -5.6362   -3.6047 H   0  0  0  0  0  0  0  0  0  0  0  0
    8.3402   -7.7050   -2.4853 H   0  0  0  0  0  0  0  0  0  0  0  0
    6.7398   -9.5429   -2.1326 H   0  0  0  0  0  0  0  0  0  0  0  0
    4.4111   -9.3116   -2.8986 H   0  0  0  0  0  0  0  0  0  0  0  0
    3.6817   -7.2410   -4.0138 H   0  0  0  0  0  0  0  0  0  0  0  0
    6.1435   -2.2358   -4.7642 H   0  0  0  0  0  0  0  0  0  0  0  0
    4.8296   -1.1810   -5.3382 H   0  0  0  0  0  0  0  0  0  0  0  0
    6.7334    0.3253   -4.1680 H   0  0  0  0  0  0  0  0  0  0  0  0
    5.4820    1.1015   -1.6350 H   0  0  0  0  0  0  0  0  0  0  0  0
    7.2849    0.6351   -0.2213 H   0  0  0  0  0  0  0  0  0  0  0  0
    7.6336   -0.6334   -1.4375 H   0  0  0  0  0  0  0  0  0  0  0  0
    9.5314    1.1988   -0.8802 H   0  0  0  0  0  0  0  0  0  0  0  0
    9.2276    0.7588   -2.5933 H   0  0  0  0  0  0  0  0  0  0  0  0
    8.1680    3.1780   -1.0311 H   0  0  0  0  0  0  0  0  0  0  0  0
    8.9488    3.1535   -2.6434 H   0  0  0  0  0  0  0  0  0  0  0  0
    7.0017    2.4387   -3.7124 H   0  0  0  0  0  0  0  0  0  0  0  0
    6.2005    3.1691   -2.2926 H   0  0  0  0  0  0  0  0  0  0  0  0
    1.3146   -3.6839   -2.2726 H   0  0  0  0  0  0  0  0  0  0  0  0
    1.2403   -4.4703   -0.3345 H   0  0  0  0  0  0  0  0  0  0  0  0
   -0.2869   -4.6545    0.5611 H   0  0  0  0  0  0  0  0  0  0  0  0
   -0.3098   -4.4735   -1.2094 H   0  0  0  0  0  0  0  0  0  0  0  0
  1  2  1  0
  1 32  1  6
  1 33  1  0
  1 34  1  0
  2  3  1  0
  3 29  2  0
  3  4  1  0
  4  5  2  0
  4 35  1  0
  5  6  1  0
  5 36  1  0
  6  7  1  0
  6 28  2  0
  7  8  2  0
  7  9  2  0
  7 10  1  1
 10 11  1  0
 10 19  1  0
 11 12  1  0
 11 37  1  1
 11 38  1  0
 12 13  1  0
 12 39  1  6
 12 40  1  0
 13 18  2  0
 13 14  1  0
 14 15  2  0
 14 41  1  0
 15 16  1  0
 15 42  1  0
 16 17  2  0
 16 43  1  0
 17 18  1  0
 17 44  1  0
 18 45  1  0
 19 20  1  0
 19 46  1  6
 19 47  1  0
 20 21  2  0
 20 22  1  0
 22 23  1  0
 22 48  1  0
 23 27  1  0
 23 24  1  0
 23 49  1  1
 24 25  1  0
 24 50  1  1
 24 51  1  0
 25 26  1  0
 25 52  1  1
 25 53  1  0
 26 27  1  0
 26 54  1  1
 26 55  1  0
 27 56  1  6
 27 57  1  0
 28 29  1  0
 28 58  1  0
 29 30  1  0
 30 31  1  0
 31 59  1  6
 31 60  1  0
 31 61  1  0
M  END
$$$$
