ZINC000408586447
     RDKit          3D

 65 68  0  0  1  0  0  0  0  0999 V2000
   -1.3954    4.0210    1.6688 C   0  0  1  0  0  0  0  0  0  0  0  0
   -1.1062    2.5346    1.8879 C   0  0  2  0  0  0  0  0  0  0  0  0
   -0.4448    2.1733    1.1005 H   0  0  0  0  0  0  0  0  0  0  0  0
   -2.3320    1.8009    1.8543 O   0  0  0  0  0  0  0  0  0  0  0  0
   -2.7895    1.4196    0.6328 C   0  0  0  0  0  0  0  0  0  0  0  0
   -2.1130    1.8072   -0.5147 C   0  0  0  0  0  0  0  0  0  0  0  0
   -2.5798    1.4179   -1.7552 C   0  0  0  0  0  0  0  0  0  0  0  0
   -3.7206    0.6429   -1.8538 C   0  0  0  0  0  0  0  0  0  0  0  0
   -4.3137    0.1485   -3.4376 S   0  0  1  0  0  0  0  0  0  0  0  0
   -5.7160   -0.0365   -3.3011 O   0  0  0  0  0  0  0  0  0  0  0  0
   -3.7357    1.0418   -4.3794 O   0  0  0  0  0  0  0  0  0  0  0  0
   -3.6739   -1.3453   -3.7562 N   0  0  0  0  0  0  0  0  0  0  0  0
   -4.3794   -2.5527   -3.3195 C   0  0  1  0  0  0  0  0  0  0  0  0
   -5.2303   -3.0736   -4.4490 C   0  0  0  0  0  0  0  0  0  0  0  0
   -6.5339   -2.6362   -4.5908 C   0  0  0  0  0  0  0  0  0  0  0  0
   -7.3144   -3.1139   -5.6269 C   0  0  0  0  0  0  0  0  0  0  0  0
   -6.7912   -4.0288   -6.5214 C   0  0  0  0  0  0  0  0  0  0  0  0
   -5.4873   -4.4655   -6.3801 C   0  0  0  0  0  0  0  0  0  0  0  0
   -4.7054   -3.9845   -5.3465 C   0  0  0  0  0  0  0  0  0  0  0  0
   -2.4024   -1.4595   -4.4748 C   0  0  1  0  0  0  0  0  0  0  0  0
   -1.3036   -1.7987   -3.5008 C   0  0  0  0  0  0  0  0  0  0  0  0
   -0.5227   -0.7932   -2.9622 C   0  0  0  0  0  0  0  0  0  0  0  0
    0.4852   -1.1044   -2.0687 C   0  0  0  0  0  0  0  0  0  0  0  0
    0.7119   -2.4209   -1.7136 C   0  0  0  0  0  0  0  0  0  0  0  0
   -0.0696   -3.4263   -2.2516 C   0  0  0  0  0  0  0  0  0  0  0  0
   -1.0803   -3.1147   -3.1417 C   0  0  0  0  0  0  0  0  0  0  0  0
   -4.3964    0.2549   -0.7117 C   0  0  0  0  0  0  0  0  0  0  0  0
   -3.9307    0.6372    0.5314 C   0  0  0  0  0  0  0  0  0  0  0  0
   -0.4433    2.3440    3.2278 C   0  0  0  0  0  0  0  0  0  0  0  0
   -1.0755    1.8906    4.1582 O   0  0  0  0  0  0  0  0  0  0  0  0
    0.8522    2.6774    3.3921 N   0  0  0  0  0  0  0  0  0  0  0  0
    1.6129    3.3185    2.3078 C   0  0  1  0  0  0  0  0  0  0  0  0
    2.3036    4.5648    2.8731 C   0  0  1  0  0  0  0  0  0  0  0  0
    3.0449    4.2032    4.0408 O   0  0  0  0  0  0  0  0  0  0  0  0
    2.2417    3.7020    5.1120 C   0  0  1  0  0  0  0  0  0  0  0  0
    1.5462    2.4166    4.6633 C   0  0  1  0  0  0  0  0  0  0  0  0
   -0.4760    4.5926    1.7958 H   0  0  0  0  0  0  0  0  0  0  0  0
   -1.7803    4.1715    0.6602 H   0  0  0  0  0  0  0  0  0  0  0  0
   -2.1358    4.3579    2.3943 H   0  0  0  0  0  0  0  0  0  0  0  0
   -1.2222    2.4131   -0.4382 H   0  0  0  0  0  0  0  0  0  0  0  0
   -2.0534    1.7194   -2.6487 H   0  0  0  0  0  0  0  0  0  0  0  0
   -3.6538   -3.3131   -3.0307 H   0  0  0  0  0  0  0  0  0  0  0  0
   -5.0145   -2.3139   -2.4664 H   0  0  0  0  0  0  0  0  0  0  0  0
   -6.9427   -1.9214   -3.8919 H   0  0  0  0  0  0  0  0  0  0  0  0
   -8.3332   -2.7727   -5.7372 H   0  0  0  0  0  0  0  0  0  0  0  0
   -7.4012   -4.4026   -7.3304 H   0  0  0  0  0  0  0  0  0  0  0  0
   -5.0786   -5.1805   -7.0787 H   0  0  0  0  0  0  0  0  0  0  0  0
   -3.6867   -4.3257   -5.2362 H   0  0  0  0  0  0  0  0  0  0  0  0
   -2.4785   -2.2464   -5.2252 H   0  0  0  0  0  0  0  0  0  0  0  0
   -2.1750   -0.5121   -4.9636 H   0  0  0  0  0  0  0  0  0  0  0  0
   -0.6998    0.2354   -3.2396 H   0  0  0  0  0  0  0  0  0  0  0  0
    1.0957   -0.3189   -1.6484 H   0  0  0  0  0  0  0  0  0  0  0  0
    1.4998   -2.6641   -1.0161 H   0  0  0  0  0  0  0  0  0  0  0  0
    0.1078   -4.4550   -1.9744 H   0  0  0  0  0  0  0  0  0  0  0  0
   -1.6908   -3.9002   -3.5620 H   0  0  0  0  0  0  0  0  0  0  0  0
   -5.2871   -0.3508   -0.7913 H   0  0  0  0  0  0  0  0  0  0  0  0
   -4.4590    0.3338    1.4232 H   0  0  0  0  0  0  0  0  0  0  0  0
    2.3620    2.6253    1.9252 H   0  0  0  0  0  0  0  0  0  0  0  0
    0.9348    3.6071    1.5046 H   0  0  0  0  0  0  0  0  0  0  0  0
    2.9810    4.9766    2.1249 H   0  0  0  0  0  0  0  0  0  0  0  0
    1.5526    5.3102    3.1349 H   0  0  0  0  0  0  0  0  0  0  0  0
    2.8744    3.4930    5.9745 H   0  0  0  0  0  0  0  0  0  0  0  0
    1.4904    4.4442    5.3819 H   0  0  0  0  0  0  0  0  0  0  0  0
    0.8254    2.1059    5.4197 H   0  0  0  0  0  0  0  0  0  0  0  0
    2.2868    1.6305    4.5163 H   0  0  0  0  0  0  0  0  0  0  0  0
  1  2  1  0
  1 37  1  6
  1 38  1  0
  1 39  1  0
  2  3  1  6
  2  4  1  0
  2 29  1  0
  4  5  1  0
  5 28  2  0
  5  6  1  0
  6  7  2  0
  6 40  1  0
  7  8  1  0
  7 41  1  0
  8  9  1  0
  8 27  2  0
  9 10  2  0
  9 11  2  0
  9 12  1  6
 12 13  1  0
 12 20  1  0
 13 14  1  0
 13 42  1  1
 13 43  1  0
 14 19  2  0
 14 15  1  0
 15 16  2  0
 15 44  1  0
 16 17  1  0
 16 45  1  0
 17 18  2  0
 17 46  1  0
 18 19  1  0
 18 47  1  0
 19 48  1  0
 20 21  1  0
 20 49  1  6
 20 50  1  0
 21 26  2  0
 21 22  1  0
 22 23  2  0
 22 51  1  0
 23 24  1  0
 23 52  1  0
 24 25  2  0
 24 53  1  0
 25 26  1  0
 25 54  1  0
 26 55  1  0
 27 28  1  0
 27 56  1  0
 28 57  1  0
 29 30  2  0
 29 31  1  0
 31 36  1  0
 31 32  1  0
 32 33  1  0
 32 58  1  6
 32 59  1  0
 33 34  1  0
 33 60  1  6
 33 61  1  0
 34 35  1  0
 35 36  1  0
 35 62  1  1
 35 63  1  0
 36 64  1  1
 36 65  1  0
M  END
$$$$
