ZINC000002455246
     RDKit          3D

 39 39  0  0  0  0  0  0  0  0999 V2000
   -0.0173    1.4248    0.0099 C   0  0  1  0  0  0  0  0  0  0  0  0
    0.0021   -0.0041    0.0020 O   0  0  0  0  0  0  0  0  0  0  0  0
    0.6518   -0.5703   -1.1379 C   0  0  1  0  0  0  0  0  0  0  0  0
    0.6131   -2.0967   -1.0411 C   0  0  1  0  0  0  0  0  0  0  0  0
   -0.7759   -2.5559   -1.1188 N   0  0  0  0  0  0  0  0  0  0  0  0
   -1.4069   -2.7629   -2.4247 C   0  0  1  0  0  0  0  0  0  0  0  0
   -1.0691   -4.1641   -2.9379 C   0  0  1  0  0  0  0  0  0  0  0  0
   -1.6552   -5.1414   -2.0756 O   0  0  0  0  0  0  0  0  0  0  0  0
   -1.3985   -6.4913   -2.4679 C   0  0  1  0  0  0  0  0  0  0  0  0
   -1.6327   -2.8409    0.2693 S   0  0  1  0  0  0  0  0  0  0  0  0
   -2.6643   -3.7550   -0.0764 O   0  0  0  0  0  0  0  0  0  0  0  0
   -0.6745   -3.0987    1.2865 O   0  0  0  0  0  0  0  0  0  0  0  0
   -2.4309   -1.3327    0.7085 C   0  0  0  0  0  0  0  0  0  0  0  0
   -1.7850   -0.4256    1.5301 C   0  0  0  0  0  0  0  0  0  0  0  0
   -2.4036    0.7569    1.8780 C   0  0  0  0  0  0  0  0  0  0  0  0
   -3.6856    1.0380    1.3988 C   0  0  0  0  0  0  0  0  0  0  0  0
   -4.3538    2.3011    1.7662 C   0  0  0  0  0  0  0  0  0  0  0  0
   -3.7855    3.1049    2.4917 O   0  0  0  0  0  0  0  0  0  0  0  0
   -5.4759    2.5442    1.3451 O   0  0  0  0  0  0  0  0  0  0  0  0
   -4.3317    0.1174    0.5697 C   0  0  0  0  0  0  0  0  0  0  0  0
   -3.6985   -1.0585    0.2256 C   0  0  0  0  0  0  0  0  0  0  0  0
    1.0053    1.8021    0.0021 H   0  0  0  0  0  0  0  0  0  0  0  0
   -0.5445    1.7859   -0.8732 H   0  0  0  0  0  0  0  0  0  0  0  0
   -0.5275    1.7763    0.9067 H   0  0  0  0  0  0  0  0  0  0  0  0
    0.1385   -0.2506   -2.0447 H   0  0  0  0  0  0  0  0  0  0  0  0
    1.6883   -0.2344   -1.1694 H   0  0  0  0  0  0  0  0  0  0  0  0
    1.1847   -2.5275   -1.8631 H   0  0  0  0  0  0  0  0  0  0  0  0
    1.0473   -2.4117   -0.0922 H   0  0  0  0  0  0  0  0  0  0  0  0
   -2.4878   -2.6630   -2.3258 H   0  0  0  0  0  0  0  0  0  0  0  0
   -1.0362   -2.0187   -3.1294 H   0  0  0  0  0  0  0  0  0  0  0  0
   -1.4635   -4.2864   -3.9467 H   0  0  0  0  0  0  0  0  0  0  0  0
    0.0130   -4.2946   -2.9525 H   0  0  0  0  0  0  0  0  0  0  0  0
   -0.3233   -6.6701   -2.4727 H   0  0  0  0  0  0  0  0  0  0  0  0
   -1.8768   -7.1716   -1.7632 H   0  0  0  0  0  0  0  0  0  0  0  0
   -1.7997   -6.6619   -3.4669 H   0  0  0  0  0  0  0  0  0  0  0  0
   -0.7942   -0.6444    1.9000 H   0  0  0  0  0  0  0  0  0  0  0  0
   -1.8985    1.4638    2.5195 H   0  0  0  0  0  0  0  0  0  0  0  0
   -5.3228    0.3280    0.1960 H   0  0  0  0  0  0  0  0  0  0  0  0
   -4.1966   -1.7710   -0.4152 H   0  0  0  0  0  0  0  0  0  0  0  0
  1  2  1  0
  1 22  1  6
  1 23  1  0
  1 24  1  0
  2  3  1  0
  3  4  1  0
  3 25  1  6
  3 26  1  0
  4  5  1  0
  4 27  1  6
  4 28  1  0
  5  6  1  0
 10  5  1  6
  6  7  1  0
  6 29  1  1
  6 30  1  0
  7  8  1  0
  7 31  1  6
  7 32  1  0
  8  9  1  0
  9 33  1  6
  9 34  1  0
  9 35  1  0
 10 11  2  0
 10 12  2  0
 10 13  1  0
 13 21  2  0
 13 14  1  0
 14 15  2  0
 14 36  1  0
 15 16  1  0
 15 37  1  0
 16 17  1  0
 16 20  2  0
 17 18  2  0
 17 19  1  0
 20 21  1  0
 20 38  1  0
 21 39  1  0
M  END
$$$$
