ZINC000012809650
     RDKit          3D

 50 52  0  0  0  0  0  0  0  0999 V2000
   -0.0271    1.8368    0.0029 C   0  0  1  0  0  0  0  0  0  0  0  0
    0.0022    0.0230    0.0062 S   0  0  1  0  0  0  0  0  0  0  0  0
    0.8458   -0.4602    1.0425 O   0  0  0  0  0  0  0  0  0  0  0  0
   -1.3077   -0.4972   -0.1746 O   0  0  0  0  0  0  0  0  0  0  0  0
    0.7978   -0.3799   -1.3892 N   0  0  0  0  0  0  0  0  0  0  0  0
    0.0576   -0.5750   -2.6433 C   0  0  1  0  0  0  0  0  0  0  0  0
    0.6763    0.3163   -3.7248 C   0  0  1  0  0  0  0  0  0  0  0  0
    2.1747    0.0220   -3.8270 C   0  0  1  0  0  0  0  0  0  0  0  0
    2.7804    0.8727   -4.9135 C   0  0  0  0  0  0  0  0  0  0  0  0
    2.0827    1.6387   -5.5439 O   0  0  0  0  0  0  0  0  0  0  0  0
    4.0975    0.7823   -5.1847 N   0  0  0  0  0  0  0  0  0  0  0  0
    4.6418    1.4988   -6.2550 C   0  0  0  0  0  0  0  0  0  0  0  0
    4.1487    2.7599   -6.5679 C   0  0  0  0  0  0  0  0  0  0  0  0
    4.6837    3.4682   -7.6227 C   0  0  0  0  0  0  0  0  0  0  0  0
    5.7201    2.9185   -8.3757 C   0  0  0  0  0  0  0  0  0  0  0  0
    6.2978    3.6789   -9.5109 C   0  0  0  0  0  0  0  0  0  0  0  0
    5.8104    4.9462   -9.8239 C   0  0  0  0  0  0  0  0  0  0  0  0
    6.3521    5.6494  -10.8810 C   0  0  0  0  0  0  0  0  0  0  0  0
    7.3763    5.0982  -11.6292 C   0  0  0  0  0  0  0  0  0  0  0  0
    7.8638    3.8401  -11.3233 C   0  0  0  0  0  0  0  0  0  0  0  0
    8.9801    3.2462  -12.1432 C   0  0  1  0  0  0  0  0  0  0  0  0
    9.3518    4.1471  -13.1469 F   0  0  0  0  0  0  0  0  0  0  0  0
   10.0794    2.9887  -11.3172 F   0  0  0  0  0  0  0  0  0  0  0  0
    8.5453    2.0514  -12.7268 F   0  0  0  0  0  0  0  0  0  0  0  0
    7.3341    3.1307  -10.2648 C   0  0  0  0  0  0  0  0  0  0  0  0
    6.2131    1.6534   -8.0600 C   0  0  0  0  0  0  0  0  0  0  0  0
    5.6788    0.9511   -7.0008 C   0  0  0  0  0  0  0  0  0  0  0  0
    2.8513    0.3419   -2.4921 C   0  0  1  0  0  0  0  0  0  0  0  0
    2.2579   -0.5431   -1.3980 C   0  0  1  0  0  0  0  0  0  0  0  0
    0.9945    2.2167   -0.0072 H   0  0  0  0  0  0  0  0  0  0  0  0
   -0.5549    2.1901   -0.8829 H   0  0  0  0  0  0  0  0  0  0  0  0
   -0.5386    2.1935    0.8969 H   0  0  0  0  0  0  0  0  0  0  0  0
    0.1242   -1.6193   -2.9482 H   0  0  0  0  0  0  0  0  0  0  0  0
   -0.9872   -0.3007   -2.4974 H   0  0  0  0  0  0  0  0  0  0  0  0
    0.1990    0.1104   -4.6829 H   0  0  0  0  0  0  0  0  0  0  0  0
    0.5284    1.3636   -3.4617 H   0  0  0  0  0  0  0  0  0  0  0  0
    2.3225   -1.0312   -4.0656 H   0  0  0  0  0  0  0  0  0  0  0  0
    4.6679    0.2201   -4.6374 H   0  0  0  0  0  0  0  0  0  0  0  0
    3.3455    3.1852   -5.9845 H   0  0  0  0  0  0  0  0  0  0  0  0
    4.3000    4.4480   -7.8658 H   0  0  0  0  0  0  0  0  0  0  0  0
    5.0101    5.3773   -9.2408 H   0  0  0  0  0  0  0  0  0  0  0  0
    5.9751    6.6317  -11.1245 H   0  0  0  0  0  0  0  0  0  0  0  0
    7.7969    5.6518  -12.4557 H   0  0  0  0  0  0  0  0  0  0  0  0
    7.7154    2.1486  -10.0269 H   0  0  0  0  0  0  0  0  0  0  0  0
    7.0157    1.2254   -8.6423 H   0  0  0  0  0  0  0  0  0  0  0  0
    6.0604   -0.0291   -6.7558 H   0  0  0  0  0  0  0  0  0  0  0  0
    3.9220    0.1543   -2.5728 H   0  0  0  0  0  0  0  0  0  0  0  0
    2.6829    1.3890   -2.2406 H   0  0  0  0  0  0  0  0  0  0  0  0
    2.6654   -0.2505   -0.4303 H   0  0  0  0  0  0  0  0  0  0  0  0
    2.5019   -1.5862   -1.5993 H   0  0  0  0  0  0  0  0  0  0  0  0
  1  2  1  0
  1 30  1  6
  1 31  1  0
  1 32  1  0
  2  3  2  0
  2  4  2  0
  2  5  1  6
  5 29  1  0
  5  6  1  0
  6  7  1  0
  6 33  1  6
  6 34  1  0
  7  8  1  0
  7 35  1  6
  7 36  1  0
  8  9  1  0
  8 28  1  0
  8 37  1  6
  9 10  2  0
  9 11  1  0
 11 12  1  0
 11 38  1  0
 12 27  2  0
 12 13  1  0
 13 14  2  0
 13 39  1  0
 14 15  1  0
 14 40  1  0
 15 16  1  0
 15 26  2  0
 16 25  2  0
 16 17  1  0
 17 18  2  0
 17 41  1  0
 18 19  1  0
 18 42  1  0
 19 20  2  0
 19 43  1  0
 20 21  1  0
 20 25  1  0
 21 22  1  6
 21 23  1  0
 21 24  1  0
 25 44  1  0
 26 27  1  0
 26 45  1  0
 27 46  1  0
 28 29  1  0
 28 47  1  6
 28 48  1  0
 29 49  1  1
 29 50  1  0
M  END
$$$$
