ZINC000040059736
     RDKit          3D

 45 48  0  0  1  0  0  0  0  0999 V2000
    1.8571    0.7115    0.6554 O   0  0  0  0  0  0  0  0  0  0  0  0
    0.7566    0.1459    1.3541 S   0  0  1  0  0  0  0  0  0  0  0  0
   -0.1880   -0.7228    0.7439 O   0  0  0  0  0  0  0  0  0  0  0  0
    1.4350   -0.7371    2.7196 C   0  0  0  0  0  0  0  0  0  0  0  0
    2.6245   -0.3222    3.2889 C   0  0  0  0  0  0  0  0  0  0  0  0
    3.1567   -1.0150    4.3601 C   0  0  0  0  0  0  0  0  0  0  0  0
    2.4994   -2.1225    4.8624 C   0  0  0  0  0  0  0  0  0  0  0  0
    3.0799   -2.8780    6.0300 C   0  0  1  0  0  0  0  0  0  0  0  0
    2.5917   -2.3375    7.2244 F   0  0  0  0  0  0  0  0  0  0  0  0
    2.7121   -4.2250    5.9431 F   0  0  0  0  0  0  0  0  0  0  0  0
    4.4747   -2.7730    6.0063 F   0  0  0  0  0  0  0  0  0  0  0  0
    1.3092   -2.5366    4.2941 C   0  0  0  0  0  0  0  0  0  0  0  0
    0.7750   -1.8415    3.2253 C   0  0  0  0  0  0  0  0  0  0  0  0
   -0.1075    1.4161    1.9724 N   0  0  0  0  0  0  0  0  0  0  0  0
    0.5520    2.6853    2.3142 C   0  0  1  0  0  0  0  0  0  0  0  0
    0.0060    3.7981    1.4136 C   0  0  1  0  0  0  0  0  0  0  0  0
   -1.4578    3.7095    1.3696 N   0  0  0  0  0  0  0  0  0  0  0  0
   -2.3251    4.6875    0.9908 C   0  0  0  0  0  0  0  0  0  0  0  0
   -3.5800    4.1993    1.0839 C   0  0  0  0  0  0  0  0  0  0  0  0
   -3.4836    2.8683    1.5408 C   0  0  0  0  0  0  0  0  0  0  0  0
   -2.1799    2.5981    1.7099 C   0  0  0  0  0  0  0  0  0  0  0  0
   -1.5621    1.3100    2.1907 C   0  0  1  0  0  0  0  0  0  0  0  0
   -1.7665    1.1731    3.2526 H   0  0  0  0  0  0  0  0  0  0  0  0
   -2.1177    0.1492    1.4066 C   0  0  0  0  0  0  0  0  0  0  0  0
   -2.3031    0.2627    0.0415 C   0  0  0  0  0  0  0  0  0  0  0  0
   -2.8128   -0.8021   -0.6777 C   0  0  0  0  0  0  0  0  0  0  0  0
   -3.1365   -1.9807   -0.0319 C   0  0  0  0  0  0  0  0  0  0  0  0
   -2.9503   -2.0945    1.3331 C   0  0  0  0  0  0  0  0  0  0  0  0
   -2.4366   -1.0311    2.0517 C   0  0  0  0  0  0  0  0  0  0  0  0
    3.1381    0.5430    2.8964 H   0  0  0  0  0  0  0  0  0  0  0  0
    4.0864   -0.6913    4.8044 H   0  0  0  0  0  0  0  0  0  0  0  0
    0.7955   -3.4016    4.6868 H   0  0  0  0  0  0  0  0  0  0  0  0
   -0.1548   -2.1650    2.7812 H   0  0  0  0  0  0  0  0  0  0  0  0
    0.3516    2.9301    3.3573 H   0  0  0  0  0  0  0  0  0  0  0  0
    1.6271    2.5891    2.1626 H   0  0  0  0  0  0  0  0  0  0  0  0
    0.3001    4.7681    1.8144 H   0  0  0  0  0  0  0  0  0  0  0  0
    0.4081    3.6822    0.4072 H   0  0  0  0  0  0  0  0  0  0  0  0
   -2.0556    5.6832    0.6711 H   0  0  0  0  0  0  0  0  0  0  0  0
   -4.4910    4.7305    0.8511 H   0  0  0  0  0  0  0  0  0  0  0  0
   -4.3062    2.1921    1.7208 H   0  0  0  0  0  0  0  0  0  0  0  0
   -2.0502    1.1835   -0.4631 H   0  0  0  0  0  0  0  0  0  0  0  0
   -2.9583   -0.7132   -1.7442 H   0  0  0  0  0  0  0  0  0  0  0  0
   -3.5354   -2.8124   -0.5937 H   0  0  0  0  0  0  0  0  0  0  0  0
   -3.2035   -3.0152    1.8378 H   0  0  0  0  0  0  0  0  0  0  0  0
   -2.2911   -1.1201    3.1181 H   0  0  0  0  0  0  0  0  0  0  0  0
  1  2  2  0
  2  3  2  0
  2  4  1  0
  2 14  1  1
  4 13  2  0
  4  5  1  0
  5  6  2  0
  5 30  1  0
  6  7  1  0
  6 31  1  0
  7  8  1  0
  7 12  2  0
  8  9  1  1
  8 10  1  0
  8 11  1  0
 12 13  1  0
 12 32  1  0
 13 33  1  0
 14 22  1  0
 14 15  1  0
 15 16  1  0
 15 34  1  1
 15 35  1  0
 16 17  1  0
 16 36  1  1
 16 37  1  0
 17 21  1  0
 17 18  1  0
 18 19  2  0
 18 38  1  0
 19 20  1  0
 19 39  1  0
 20 21  2  0
 20 40  1  0
 21 22  1  0
 22 23  1  1
 22 24  1  0
 24 29  2  0
 24 25  1  0
 25 26  2  0
 25 41  1  0
 26 27  1  0
 26 42  1  0
 27 28  2  0
 27 43  1  0
 28 29  1  0
 28 44  1  0
 29 45  1  0
M  END
$$$$
