ZINC000001098826
     RDKit          3D

 43 44  0  0  1  0  0  0  0  0999 V2000
   -0.2344    1.2915    0.6642 C   0  0  1  0  0  0  0  0  0  0  0  0
    0.0760   -0.1769    0.3667 C   0  0  1  0  0  0  0  0  0  0  0  0
    0.8008   -0.2378   -0.4452 H   0  0  0  0  0  0  0  0  0  0  0  0
    0.6465   -0.8295    1.5994 C   0  0  0  0  0  0  0  0  0  0  0  0
   -0.0754   -1.4648    2.3385 O   0  0  0  0  0  0  0  0  0  0  0  0
    1.9590   -0.7072    1.8805 N   0  0  0  0  0  0  0  0  0  0  0  0
    2.4686   -1.2191    3.0796 C   0  0  0  0  0  0  0  0  0  0  0  0
    1.6182   -1.4612    4.1497 C   0  0  0  0  0  0  0  0  0  0  0  0
    2.1241   -1.9669    5.3317 C   0  0  0  0  0  0  0  0  0  0  0  0
    1.2011   -2.2302    6.4935 C   0  0  1  0  0  0  0  0  0  0  0  0
    0.7135   -3.5391    6.4143 F   0  0  0  0  0  0  0  0  0  0  0  0
    1.9023   -2.0656    7.6928 F   0  0  0  0  0  0  0  0  0  0  0  0
    0.1306   -1.3305    6.4519 F   0  0  0  0  0  0  0  0  0  0  0  0
    3.4757   -2.2321    5.4501 C   0  0  0  0  0  0  0  0  0  0  0  0
    4.3265   -1.9919    4.3864 C   0  0  0  0  0  0  0  0  0  0  0  0
    3.8263   -1.4915    3.1994 C   0  0  0  0  0  0  0  0  0  0  0  0
    4.8943   -1.1907    1.8643 Cl  0  0  0  0  0  0  0  0  0  0  0  0
   -1.1556   -0.8666   -0.0254 N   0  0  0  0  0  0  0  0  0  0  0  0
   -2.2439   -0.9040    0.8493 C   0  0  0  0  0  0  0  0  0  0  0  0
   -2.6752   -2.1164    1.3724 C   0  0  0  0  0  0  0  0  0  0  0  0
   -3.7513   -2.1497    2.2374 C   0  0  0  0  0  0  0  0  0  0  0  0
   -4.3995   -0.9780    2.5826 C   0  0  0  0  0  0  0  0  0  0  0  0
   -3.9727    0.2307    2.0636 C   0  0  0  0  0  0  0  0  0  0  0  0
   -2.8937    0.2718    1.2026 C   0  0  0  0  0  0  0  0  0  0  0  0
   -1.2575   -1.6019   -1.5057 S   0  0  1  0  0  0  0  0  0  0  0  0
   -0.5049   -3.2330   -1.2537 C   0  0  1  0  0  0  0  0  0  0  0  0
   -2.6535   -1.7275   -1.7393 O   0  0  0  0  0  0  0  0  0  0  0  0
   -0.4423   -0.8019   -2.3512 O   0  0  0  0  0  0  0  0  0  0  0  0
    0.6963    1.8315    0.8383 H   0  0  0  0  0  0  0  0  0  0  0  0
   -0.7565    1.7318   -0.1853 H   0  0  0  0  0  0  0  0  0  0  0  0
   -0.8640    1.3572    1.5515 H   0  0  0  0  0  0  0  0  0  0  0  0
    2.5504   -0.2644    1.2520 H   0  0  0  0  0  0  0  0  0  0  0  0
    0.5622   -1.2540    4.0585 H   0  0  0  0  0  0  0  0  0  0  0  0
    3.8682   -2.6273    6.3753 H   0  0  0  0  0  0  0  0  0  0  0  0
    5.3819   -2.1998    4.4821 H   0  0  0  0  0  0  0  0  0  0  0  0
   -2.1698   -3.0319    1.1027 H   0  0  0  0  0  0  0  0  0  0  0  0
   -4.0871   -3.0920    2.6445 H   0  0  0  0  0  0  0  0  0  0  0  0
   -5.2412   -1.0069    3.2586 H   0  0  0  0  0  0  0  0  0  0  0  0
   -4.4812    1.1439    2.3352 H   0  0  0  0  0  0  0  0  0  0  0  0
   -2.5608    1.2161    0.7979 H   0  0  0  0  0  0  0  0  0  0  0  0
   -0.9655   -3.7165   -0.3921 H   0  0  0  0  0  0  0  0  0  0  0  0
   -0.6612   -3.8464   -2.1411 H   0  0  0  0  0  0  0  0  0  0  0  0
    0.5642   -3.1164   -1.0763 H   0  0  0  0  0  0  0  0  0  0  0  0
  1  2  1  0
  1 29  1  1
  1 30  1  0
  1 31  1  0
  2  3  1  6
  2  4  1  0
  2 18  1  0
  4  5  2  0
  4  6  1  0
  6  7  1  0
  6 32  1  0
  7 16  2  0
  7  8  1  0
  8  9  2  0
  8 33  1  0
  9 10  1  0
  9 14  1  0
 10 11  1  6
 10 12  1  0
 10 13  1  0
 14 15  2  0
 14 34  1  0
 15 16  1  0
 15 35  1  0
 16 17  1  0
 18 19  1  0
 25 18  1  1
 19 24  2  0
 19 20  1  0
 20 21  2  0
 20 36  1  0
 21 22  1  0
 21 37  1  0
 22 23  2  0
 22 38  1  0
 23 24  1  0
 23 39  1  0
 24 40  1  0
 25 26  1  0
 25 27  2  0
 25 28  2  0
 26 41  1  1
 26 42  1  0
 26 43  1  0
M  END
$$$$
