ZINC000062132516
     RDKit          3D

 32 33  0  0  1  0  0  0  0  0999 V2000
    0.0021   -0.0041    0.0020 O   0  0  0  0  0  0  0  0  0  0  0  0
   -0.0145    1.2150    0.0087 C   0  0  0  0  0  0  0  0  0  0  0  0
    1.0330    1.8389    0.0021 O   0  0  0  0  0  0  0  0  0  0  0  0
   -1.3296    1.9507    0.0190 C   0  0  1  0  0  0  0  0  0  0  0  0
   -1.6759    2.1329   -0.9984 H   0  0  0  0  0  0  0  0  0  0  0  0
   -2.3933    1.1624    0.8279 C   0  0  1  0  0  0  0  0  0  0  0  0
   -3.3401    2.2992    1.2874 C   0  0  1  0  0  0  0  0  0  0  0  0
   -2.4499    3.4385    1.5752 N   0  0  0  0  0  0  0  0  0  0  0  0
   -2.7907    4.6951    2.5986 S   0  0  1  0  0  0  0  0  0  0  0  0
   -1.9804    5.7847    2.1798 O   0  0  0  0  0  0  0  0  0  0  0  0
   -4.2071    4.7684    2.6861 O   0  0  0  0  0  0  0  0  0  0  0  0
   -2.2165    4.2345    4.1994 C   0  0  0  0  0  0  0  0  0  0  0  0
   -3.0559    3.5621    5.0678 C   0  0  0  0  0  0  0  0  0  0  0  0
   -2.6054    3.2007    6.3237 C   0  0  0  0  0  0  0  0  0  0  0  0
   -1.3153    3.5114    6.7111 C   0  0  0  0  0  0  0  0  0  0  0  0
   -0.8244    3.1179    8.0805 C   0  0  1  0  0  0  0  0  0  0  0  0
   -0.2500    1.8436    8.0216 F   0  0  0  0  0  0  0  0  0  0  0  0
    0.1324    4.0410    8.5159 F   0  0  0  0  0  0  0  0  0  0  0  0
   -1.8998    3.1037    8.9752 F   0  0  0  0  0  0  0  0  0  0  0  0
   -0.4754    4.1826    5.8422 C   0  0  0  0  0  0  0  0  0  0  0  0
   -0.9247    4.5405    4.5849 C   0  0  0  0  0  0  0  0  0  0  0  0
   -1.2078    3.2762    0.7999 C   0  0  1  0  0  0  0  0  0  0  0  0
   -2.9185    0.4496    0.1922 H   0  0  0  0  0  0  0  0  0  0  0  0
   -1.9409    0.6610    1.6835 H   0  0  0  0  0  0  0  0  0  0  0  0
   -4.0391    2.5556    0.4914 H   0  0  0  0  0  0  0  0  0  0  0  0
   -3.8800    2.0029    2.1867 H   0  0  0  0  0  0  0  0  0  0  0  0
   -4.0638    3.3194    4.7652 H   0  0  0  0  0  0  0  0  0  0  0  0
   -3.2615    2.6760    7.0025 H   0  0  0  0  0  0  0  0  0  0  0  0
    0.5326    4.4249    6.1448 H   0  0  0  0  0  0  0  0  0  0  0  0
   -0.2685    5.0649    3.9060 H   0  0  0  0  0  0  0  0  0  0  0  0
   -0.3530    3.2290    1.4747 H   0  0  0  0  0  0  0  0  0  0  0  0
   -1.0909    4.1104    0.1081 H   0  0  0  0  0  0  0  0  0  0  0  0
  1  2  2  0
  2  3  1  0
  2  4  1  0
  4  5  1  6
  4 22  1  0
  4  6  1  0
  6  7  1  0
  6 23  1  6
  6 24  1  0
  7  8  1  0
  7 25  1  6
  7 26  1  0
  9  8  1  6
  8 22  1  0
  9 10  2  0
  9 11  2  0
  9 12  1  0
 12 21  2  0
 12 13  1  0
 13 14  2  0
 13 27  1  0
 14 15  1  0
 14 28  1  0
 15 16  1  0
 15 20  2  0
 16 17  1  6
 16 18  1  0
 16 19  1  0
 20 21  1  0
 20 29  1  0
 21 30  1  0
 22 31  1  1
 22 32  1  0
M  END
$$$$
