ZINC000009691489
     RDKit          3D

 37 38  0  0  1  0  0  0  0  0999 V2000
   -0.0171    1.8178   -0.0033 C   0  0  1  0  0  0  0  0  0  0  0  0
    0.0058    0.0040   -0.0012 S   0  0  1  0  0  0  0  0  0  0  0  0
    0.8509   -0.4828    1.0323 O   0  0  0  0  0  0  0  0  0  0  0  0
   -1.3065   -0.5115   -0.1782 O   0  0  0  0  0  0  0  0  0  0  0  0
    0.7956   -0.4009   -1.3992 N   0  0  0  0  0  0  0  0  0  0  0  0
    0.1615   -0.6186   -2.7122 C   0  0  1  0  0  0  0  0  0  0  0  0
    1.2846   -0.3492   -3.7446 C   0  0  1  0  0  0  0  0  0  0  0  0
    2.5233   -0.9362   -3.0176 C   0  0  1  0  0  0  0  0  0  0  0  0
    2.2462   -0.5966   -1.5380 C   0  0  2  0  0  0  0  0  0  0  0  0
    2.7763    0.3146   -1.2612 H   0  0  0  0  0  0  0  0  0  0  0  0
    2.6923   -1.7361   -0.6585 C   0  0  0  0  0  0  0  0  0  0  0  0
    1.8849   -2.3213    0.0320 O   0  0  0  0  0  0  0  0  0  0  0  0
    3.9885   -2.1049   -0.6391 N   0  0  0  0  0  0  0  0  0  0  0  0
    4.4203   -3.0972    0.2478 C   0  0  0  0  0  0  0  0  0  0  0  0
    5.6801   -3.0132    0.8262 C   0  0  0  0  0  0  0  0  0  0  0  0
    6.1034   -3.9943    1.7013 C   0  0  0  0  0  0  0  0  0  0  0  0
    5.2746   -5.0597    2.0013 C   0  0  0  0  0  0  0  0  0  0  0  0
    5.7399   -6.1287    2.9561 C   0  0  1  0  0  0  0  0  0  0  0  0
    5.3752   -5.7796    4.2608 F   0  0  0  0  0  0  0  0  0  0  0  0
    5.1452   -7.3486    2.6163 F   0  0  0  0  0  0  0  0  0  0  0  0
    7.1314   -6.2505    2.8777 F   0  0  0  0  0  0  0  0  0  0  0  0
    4.0194   -5.1461    1.4274 C   0  0  0  0  0  0  0  0  0  0  0  0
    3.5879   -4.1653    0.5560 C   0  0  0  0  0  0  0  0  0  0  0  0
    1.0059    2.1941   -0.0164 H   0  0  0  0  0  0  0  0  0  0  0  0
   -0.5463    2.1735   -0.8873 H   0  0  0  0  0  0  0  0  0  0  0  0
   -0.5245    2.1758    0.8925 H   0  0  0  0  0  0  0  0  0  0  0  0
   -0.1929   -1.6460   -2.7966 H   0  0  0  0  0  0  0  0  0  0  0  0
   -0.6621    0.0807   -2.8563 H   0  0  0  0  0  0  0  0  0  0  0  0
    1.0923   -0.8782   -4.6780 H   0  0  0  0  0  0  0  0  0  0  0  0
    1.4051    0.7197   -3.9208 H   0  0  0  0  0  0  0  0  0  0  0  0
    2.5819   -2.0145   -3.1652 H   0  0  0  0  0  0  0  0  0  0  0  0
    3.4370   -0.4490   -3.3581 H   0  0  0  0  0  0  0  0  0  0  0  0
    4.6220   -1.6824   -1.2400 H   0  0  0  0  0  0  0  0  0  0  0  0
    6.3282   -2.1817    0.5918 H   0  0  0  0  0  0  0  0  0  0  0  0
    7.0830   -3.9295    2.1514 H   0  0  0  0  0  0  0  0  0  0  0  0
    3.3744   -5.9795    1.6637 H   0  0  0  0  0  0  0  0  0  0  0  0
    2.6076   -4.2333    0.1081 H   0  0  0  0  0  0  0  0  0  0  0  0
  1  2  1  0
  1 24  1  6
  1 25  1  0
  1 26  1  0
  2  3  2  0
  2  4  2  0
  2  5  1  6
  5  9  1  0
  5  6  1  0
  6  7  1  0
  6 27  1  1
  6 28  1  0
  7  8  1  0
  7 29  1  6
  7 30  1  0
  8  9  1  0
  8 31  1  1
  8 32  1  0
  9 10  1  1
  9 11  1  0
 11 12  2  0
 11 13  1  0
 13 14  1  0
 13 33  1  0
 14 23  2  0
 14 15  1  0
 15 16  2  0
 15 34  1  0
 16 17  1  0
 16 35  1  0
 17 18  1  0
 17 22  2  0
 18 19  1  1
 18 20  1  0
 18 21  1  0
 22 23  1  0
 22 36  1  0
 23 37  1  0
M  END
$$$$
