ZINC000020032376
     RDKit          3D

 59 61  0  0  0  0  0  0  0  0999 V2000
   -0.0178    1.4608    0.0101 C   0  0  1  0  0  0  0  0  0  0  0  0
    0.0021   -0.0041    0.0020 N   0  0  0  0  0  0  0  0  0  0  0  0
    0.0241   -0.7433    1.2666 C   0  0  1  0  0  0  0  0  0  0  0  0
   -0.0004   -0.8243   -1.4366 S   0  0  1  0  0  0  0  0  0  0  0  0
   -0.5247   -2.1160   -1.1611 O   0  0  0  0  0  0  0  0  0  0  0  0
   -0.5660    0.0551   -2.3989 O   0  0  0  0  0  0  0  0  0  0  0  0
    1.6816   -1.0597   -1.9056 C   0  0  0  0  0  0  0  0  0  0  0  0
    2.3234   -0.1095   -2.6777 C   0  0  0  0  0  0  0  0  0  0  0  0
    3.6430   -0.2942   -3.0457 C   0  0  0  0  0  0  0  0  0  0  0  0
    4.3210   -1.4289   -2.6412 C   0  0  0  0  0  0  0  0  0  0  0  0
    5.7594   -1.6304   -3.0428 C   0  0  1  0  0  0  0  0  0  0  0  0
    6.6369   -1.0418   -2.0280 N   0  0  0  0  0  0  0  0  0  0  0  0
    7.9750   -1.1025   -2.1769 C   0  0  0  0  0  0  0  0  0  0  0  0
    8.4528   -1.6443   -3.1511 O   0  0  0  0  0  0  0  0  0  0  0  0
    8.8776   -0.4970   -1.1330 C   0  0  1  0  0  0  0  0  0  0  0  0
   10.2416   -0.6882   -1.5138 O   0  0  0  0  0  0  0  0  0  0  0  0
   11.1910   -0.1974   -0.6744 C   0  0  0  0  0  0  0  0  0  0  0  0
   10.8177    0.4496    0.4946 C   0  0  0  0  0  0  0  0  0  0  0  0
   11.7847    0.9472    1.3464 C   0  0  0  0  0  0  0  0  0  0  0  0
   13.1238    0.8011    1.0345 C   0  0  0  0  0  0  0  0  0  0  0  0
   14.3549    1.4374    2.1228 S   0  0  1  0  0  0  0  0  0  0  0  0
   15.5188    1.6448    1.3346 O   0  0  0  0  0  0  0  0  0  0  0  0
   13.7312    2.4695    2.8746 O   0  0  0  0  0  0  0  0  0  0  0  0
   14.7269    0.2347    3.1987 N   0  0  0  0  0  0  0  0  0  0  0  0
   14.0607    0.0027    4.4886 C   0  0  1  0  0  0  0  0  0  0  0  0
   14.7567   -1.2037    5.1533 C   0  0  1  0  0  0  0  0  0  0  0  0
   16.1437   -1.2309    4.4584 C   0  0  1  0  0  0  0  0  0  0  0  0
   15.7768   -0.7845    3.0188 C   0  0  1  0  0  0  0  0  0  0  0  0
   13.4985    0.1563   -0.1297 C   0  0  0  0  0  0  0  0  0  0  0  0
   12.5354   -0.3477   -0.9822 C   0  0  0  0  0  0  0  0  0  0  0  0
    3.6797   -2.3784   -1.8680 C   0  0  0  0  0  0  0  0  0  0  0  0
    2.3612   -2.1919   -1.4968 C   0  0  0  0  0  0  0  0  0  0  0  0
    1.0048    1.8381    0.0023 H   0  0  0  0  0  0  0  0  0  0  0  0
   -0.5450    1.8219   -0.8730 H   0  0  0  0  0  0  0  0  0  0  0  0
   -0.5280    1.8123    0.9069 H   0  0  0  0  0  0  0  0  0  0  0  0
    0.0224   -0.0395    2.0990 H   0  0  0  0  0  0  0  0  0  0  0  0
   -0.8567   -1.3823    1.3294 H   0  0  0  0  0  0  0  0  0  0  0  0
    0.9230   -1.3581    1.3125 H   0  0  0  0  0  0  0  0  0  0  0  0
    1.7936    0.7771   -2.9938 H   0  0  0  0  0  0  0  0  0  0  0  0
    4.1441    0.4479   -3.6495 H   0  0  0  0  0  0  0  0  0  0  0  0
    5.9668   -2.6971   -3.1279 H   0  0  0  0  0  0  0  0  0  0  0  0
    5.9396   -1.1475   -4.0032 H   0  0  0  0  0  0  0  0  0  0  0  0
    6.2547   -0.6085   -1.2488 H   0  0  0  0  0  0  0  0  0  0  0  0
    8.6702    0.5697   -1.0478 H   0  0  0  0  0  0  0  0  0  0  0  0
    8.6973   -0.9800   -0.1725 H   0  0  0  0  0  0  0  0  0  0  0  0
    9.7718    0.5646    0.7384 H   0  0  0  0  0  0  0  0  0  0  0  0
   11.4946    1.4510    2.2566 H   0  0  0  0  0  0  0  0  0  0  0  0
   14.1619    0.8841    5.1219 H   0  0  0  0  0  0  0  0  0  0  0  0
   13.0063   -0.2207    4.3264 H   0  0  0  0  0  0  0  0  0  0  0  0
   14.8657   -1.0432    6.2259 H   0  0  0  0  0  0  0  0  0  0  0  0
   14.2073   -2.1238    4.9538 H   0  0  0  0  0  0  0  0  0  0  0  0
   16.8294   -0.5251    4.9272 H   0  0  0  0  0  0  0  0  0  0  0  0
   16.5612   -2.2378    4.4589 H   0  0  0  0  0  0  0  0  0  0  0  0
   15.3978   -1.6298    2.4445 H   0  0  0  0  0  0  0  0  0  0  0  0
   16.6444   -0.3474    2.5245 H   0  0  0  0  0  0  0  0  0  0  0  0
   14.5452    0.0431   -0.3710 H   0  0  0  0  0  0  0  0  0  0  0  0
   12.8286   -0.8514   -1.8915 H   0  0  0  0  0  0  0  0  0  0  0  0
    4.2095   -3.2648   -1.5516 H   0  0  0  0  0  0  0  0  0  0  0  0
    1.8602   -2.9338   -0.8927 H   0  0  0  0  0  0  0  0  0  0  0  0
  1  2  1  0
  1 33  1  6
  1 34  1  0
  1 35  1  0
  2  3  1  0
  4  2  1  1
  3 36  1  1
  3 37  1  0
  3 38  1  0
  4  5  2  0
  4  6  2  0
  4  7  1  0
  7 32  2  0
  7  8  1  0
  8  9  2  0
  8 39  1  0
  9 10  1  0
  9 40  1  0
 10 11  1  0
 10 31  2  0
 11 12  1  0
 11 41  1  6
 11 42  1  0
 12 13  1  0
 12 43  1  0
 13 14  2  0
 13 15  1  0
 15 16  1  0
 15 44  1  1
 15 45  1  0
 16 17  1  0
 17 30  2  0
 17 18  1  0
 18 19  2  0
 18 46  1  0
 19 20  1  0
 19 47  1  0
 20 21  1  0
 20 29  2  0
 21 22  2  0
 21 23  2  0
 21 24  1  1
 24 28  1  0
 24 25  1  0
 25 26  1  0
 25 48  1  1
 25 49  1  0
 26 27  1  0
 26 50  1  1
 26 51  1  0
 27 28  1  0
 27 52  1  1
 27 53  1  0
 28 54  1  6
 28 55  1  0
 29 30  1  0
 29 56  1  0
 30 57  1  0
 31 32  1  0
 31 58  1  0
 32 59  1  0
M  END
$$$$
