ZINC000015541118
     RDKit          3D

 50 52  0  0  0  0  0  0  0  0999 V2000
   -0.0062    1.3804    0.0837 C   0  0  1  0  0  0  0  0  0  0  0  0
    0.0203   -0.1260    0.0504 C   0  0  0  0  0  0  0  0  0  0  0  0
   -0.0433   -0.7892   -1.1620 C   0  0  0  0  0  0  0  0  0  0  0  0
   -0.0195   -2.1683   -1.1995 C   0  0  0  0  0  0  0  0  0  0  0  0
    0.0689   -2.8942   -0.0107 C   0  0  0  0  0  0  0  0  0  0  0  0
    0.0953   -4.3717   -0.0434 C   0  0  0  0  0  0  0  0  0  0  0  0
    0.1723   -5.0014    0.9936 O   0  0  0  0  0  0  0  0  0  0  0  0
    0.0340   -5.0209   -1.2230 N   0  0  0  0  0  0  0  0  0  0  0  0
   -0.0506   -6.4165   -1.2494 C   0  0  0  0  0  0  0  0  0  0  0  0
    0.5673   -7.1321   -2.2669 C   0  0  0  0  0  0  0  0  0  0  0  0
    0.4818   -8.5103   -2.2902 C   0  0  0  0  0  0  0  0  0  0  0  0
   -0.2185   -9.1779   -1.3021 C   0  0  0  0  0  0  0  0  0  0  0  0
   -0.3096  -10.6819   -1.3307 C   0  0  1  0  0  0  0  0  0  0  0  0
    0.7613  -11.2277   -0.6148 F   0  0  0  0  0  0  0  0  0  0  0  0
   -1.5151  -11.0871   -0.7476 F   0  0  0  0  0  0  0  0  0  0  0  0
   -0.2598  -11.1270   -2.6560 F   0  0  0  0  0  0  0  0  0  0  0  0
   -0.8348   -8.4685   -0.2877 C   0  0  0  0  0  0  0  0  0  0  0  0
   -0.7480   -7.0905   -0.2552 C   0  0  0  0  0  0  0  0  0  0  0  0
    0.1327   -2.2186    1.2094 C   0  0  0  0  0  0  0  0  0  0  0  0
    0.1137   -0.8396    1.2324 C   0  0  0  0  0  0  0  0  0  0  0  0
    0.1947    0.0150    2.7711 S   0  0  1  0  0  0  0  0  0  0  0  0
   -0.7839    1.0436    2.7108 O   0  0  0  0  0  0  0  0  0  0  0  0
    0.2130   -0.9820    3.7834 O   0  0  0  0  0  0  0  0  0  0  0  0
    1.6660    0.7725    2.8343 N   0  0  0  0  0  0  0  0  0  0  0  0
    2.8595    0.0522    3.2984 C   0  0  1  0  0  0  0  0  0  0  0  0
    3.9560    0.1790    2.2362 C   0  0  1  0  0  0  0  0  0  0  0  0
    4.1949    1.6592    1.9295 C   0  0  1  0  0  0  0  0  0  0  0  0
    2.9110    2.2806    1.3748 C   0  0  1  0  0  0  0  0  0  0  0  0
    1.8038    2.1758    2.4215 C   0  0  1  0  0  0  0  0  0  0  0  0
    1.0142    1.7607    0.1331 H   0  0  0  0  0  0  0  0  0  0  0  0
   -0.4904    1.7553   -0.8180 H   0  0  0  0  0  0  0  0  0  0  0  0
   -0.5613    1.7147    0.9601 H   0  0  0  0  0  0  0  0  0  0  0  0
   -0.1120   -0.2263   -2.0811 H   0  0  0  0  0  0  0  0  0  0  0  0
   -0.0696   -2.6848   -2.1467 H   0  0  0  0  0  0  0  0  0  0  0  0
    0.0485   -4.5200   -2.0535 H   0  0  0  0  0  0  0  0  0  0  0  0
    1.1137   -6.6112   -3.0393 H   0  0  0  0  0  0  0  0  0  0  0  0
    0.9621   -9.0673   -3.0811 H   0  0  0  0  0  0  0  0  0  0  0  0
   -1.3812   -8.9928    0.4823 H   0  0  0  0  0  0  0  0  0  0  0  0
   -1.2292   -6.5371    0.5376 H   0  0  0  0  0  0  0  0  0  0  0  0
    0.2011   -2.7745    2.1328 H   0  0  0  0  0  0  0  0  0  0  0  0
    3.2069    0.4865    4.2358 H   0  0  0  0  0  0  0  0  0  0  0  0
    2.6161   -0.9996    3.4486 H   0  0  0  0  0  0  0  0  0  0  0  0
    4.8773   -0.2685    2.6092 H   0  0  0  0  0  0  0  0  0  0  0  0
    3.6433   -0.3351    1.3273 H   0  0  0  0  0  0  0  0  0  0  0  0
    4.4836    2.1775    2.8438 H   0  0  0  0  0  0  0  0  0  0  0  0
    4.9919    1.7532    1.1919 H   0  0  0  0  0  0  0  0  0  0  0  0
    3.0885    3.3289    1.1347 H   0  0  0  0  0  0  0  0  0  0  0  0
    2.6081    1.7468    0.4740 H   0  0  0  0  0  0  0  0  0  0  0  0
    0.8638    2.5268    1.9954 H   0  0  0  0  0  0  0  0  0  0  0  0
    2.0629    2.7822    3.2894 H   0  0  0  0  0  0  0  0  0  0  0  0
  1  2  1  0
  1 30  1  1
  1 31  1  0
  1 32  1  0
  2 20  2  0
  2  3  1  0
  3  4  2  0
  3 33  1  0
  4  5  1  0
  4 34  1  0
  5  6  1  0
  5 19  2  0
  6  7  2  0
  6  8  1  0
  8  9  1  0
  8 35  1  0
  9 18  2  0
  9 10  1  0
 10 11  2  0
 10 36  1  0
 11 12  1  0
 11 37  1  0
 12 13  1  0
 12 17  2  0
 13 14  1  1
 13 15  1  0
 13 16  1  0
 17 18  1  0
 17 38  1  0
 18 39  1  0
 19 20  1  0
 19 40  1  0
 20 21  1  0
 21 22  2  0
 21 23  2  0
 21 24  1  6
 24 29  1  0
 24 25  1  0
 25 26  1  0
 25 41  1  1
 25 42  1  0
 26 27  1  0
 26 43  1  1
 26 44  1  0
 27 28  1  0
 27 45  1  1
 27 46  1  0
 28 29  1  0
 28 47  1  6
 28 48  1  0
 29 49  1  6
 29 50  1  0
M  END
$$$$
