ZINC000008861775
     RDKit          3D

 43 45  0  0  1  0  0  0  0  0999 V2000
    0.9627    1.7566   -0.3078 C   0  0  1  0  0  0  0  0  0  0  0  0
    1.0874    0.3139   -0.2005 O   0  0  0  0  0  0  0  0  0  0  0  0
    0.4923   -0.4217   -1.1526 C   0  0  0  0  0  0  0  0  0  0  0  0
   -0.1127    0.1219   -2.0461 O   0  0  0  0  0  0  0  0  0  0  0  0
    0.5789   -1.9255   -1.1072 C   0  0  1  0  0  0  0  0  0  0  0  0
    1.1659   -2.2350   -0.2425 H   0  0  0  0  0  0  0  0  0  0  0  0
   -0.8252   -2.5216   -1.0191 C   0  0  1  0  0  0  0  0  0  0  0  0
   -0.7961   -4.0035   -1.2860 C   0  0  0  0  0  0  0  0  0  0  0  0
   -1.8718   -4.7601   -0.8382 C   0  0  0  0  0  0  0  0  0  0  0  0
   -1.9125   -6.1213   -1.0584 C   0  0  0  0  0  0  0  0  0  0  0  0
   -0.8760   -6.7402   -1.7315 C   0  0  0  0  0  0  0  0  0  0  0  0
    0.1955   -5.9917   -2.1744 C   0  0  0  0  0  0  0  0  0  0  0  0
    0.2402   -4.6230   -1.9484 C   0  0  0  0  0  0  0  0  0  0  0  0
    1.4520   -3.8688   -2.4355 C   0  0  1  0  0  0  0  0  0  0  0  0
    1.2076   -2.4257   -2.3409 N   0  0  0  0  0  0  0  0  0  0  0  0
    1.6195   -1.4000   -3.5740 S   0  0  1  0  0  0  0  0  0  0  0  0
    1.9940   -0.1715   -2.9659 O   0  0  0  0  0  0  0  0  0  0  0  0
    2.4779   -2.1337   -4.4365 O   0  0  0  0  0  0  0  0  0  0  0  0
    0.1519   -1.0733   -4.4928 C   0  0  0  0  0  0  0  0  0  0  0  0
   -0.3589    0.2097   -4.5459 C   0  0  0  0  0  0  0  0  0  0  0  0
   -1.5105    0.4662   -5.2668 C   0  0  0  0  0  0  0  0  0  0  0  0
   -2.0671    1.8655   -5.3244 C   0  0  1  0  0  0  0  0  0  0  0  0
   -1.5129    2.5433   -6.4155 F   0  0  0  0  0  0  0  0  0  0  0  0
   -3.4576    1.8087   -5.4680 F   0  0  0  0  0  0  0  0  0  0  0  0
   -1.7476    2.5434   -4.1430 F   0  0  0  0  0  0  0  0  0  0  0  0
   -2.1512   -0.5601   -5.9352 C   0  0  0  0  0  0  0  0  0  0  0  0
   -1.6411   -1.8439   -5.8828 C   0  0  0  0  0  0  0  0  0  0  0  0
   -0.4861   -2.1001   -5.1660 C   0  0  0  0  0  0  0  0  0  0  0  0
    0.1551   -3.7120   -5.0998 Cl  0  0  0  0  0  0  0  0  0  0  0  0
    1.3978    2.0898   -1.2500 H   0  0  0  0  0  0  0  0  0  0  0  0
   -0.0910    2.0335   -0.2761 H   0  0  0  0  0  0  0  0  0  0  0  0
    1.4878    2.2294    0.5222 H   0  0  0  0  0  0  0  0  0  0  0  0
   -1.2277   -2.3449   -0.0217 H   0  0  0  0  0  0  0  0  0  0  0  0
   -1.4671   -2.0373   -1.7549 H   0  0  0  0  0  0  0  0  0  0  0  0
   -2.6832   -4.2783   -0.3128 H   0  0  0  0  0  0  0  0  0  0  0  0
   -2.7520   -6.7020   -0.7054 H   0  0  0  0  0  0  0  0  0  0  0  0
   -0.9043   -7.8050   -1.9097 H   0  0  0  0  0  0  0  0  0  0  0  0
    1.0053   -6.4747   -2.7010 H   0  0  0  0  0  0  0  0  0  0  0  0
    2.3133   -4.1306   -1.8210 H   0  0  0  0  0  0  0  0  0  0  0  0
    1.6527   -4.1360   -3.4730 H   0  0  0  0  0  0  0  0  0  0  0  0
    0.1412    1.0120   -4.0239 H   0  0  0  0  0  0  0  0  0  0  0  0
   -3.0507   -0.3591   -6.4981 H   0  0  0  0  0  0  0  0  0  0  0  0
   -2.1418   -2.6457   -6.4050 H   0  0  0  0  0  0  0  0  0  0  0  0
  1  2  1  0
  1 30  1  6
  1 31  1  0
  1 32  1  0
  2  3  1  0
  3  4  2  0
  3  5  1  0
  5  6  1  1
  5 15  1  0
  5  7  1  0
  7  8  1  0
  7 33  1  1
  7 34  1  0
  8 13  2  0
  8  9  1  0
  9 10  2  0
  9 35  1  0
 10 11  1  0
 10 36  1  0
 11 12  2  0
 11 37  1  0
 12 13  1  0
 12 38  1  0
 13 14  1  0
 14 15  1  0
 14 39  1  1
 14 40  1  0
 16 15  1  1
 16 17  2  0
 16 18  2  0
 16 19  1  0
 19 28  2  0
 19 20  1  0
 20 21  2  0
 20 41  1  0
 21 22  1  0
 21 26  1  0
 22 23  1  6
 22 24  1  0
 22 25  1  0
 26 27  2  0
 26 42  1  0
 27 28  1  0
 27 43  1  0
 28 29  1  0
M  END
$$$$
