ZINC000253427233
     RDKit          3D

 44 46  0  0  0  0  0  0  0  0999 V2000
   -0.0184    1.5028    0.0103 C   0  0  1  0  0  0  0  0  0  0  0  0
    0.0021   -0.0041    0.0020 C   0  0  0  0  0  0  0  0  0  0  0  0
    0.0085   -0.8009   -1.0836 C   0  0  0  0  0  0  0  0  0  0  0  0
    0.0275   -2.0745   -0.6635 N   0  0  0  0  0  0  0  0  0  0  0  0
    0.0361   -2.8555   -1.2387 H   0  0  0  0  0  0  0  0  0  0  0  0
    0.0331   -2.0972    0.6413 C   0  0  0  0  0  0  0  0  0  0  0  0
    0.0236   -0.8258    1.0965 N   0  0  0  0  0  0  0  0  0  0  0  0
    0.0261   -0.4049    2.4997 C   0  0  1  0  0  0  0  0  0  0  0  0
   -1.2167   -0.9587    3.2003 C   0  0  1  0  0  0  0  0  0  0  0  0
   -1.2286   -0.4879    4.6581 C   0  0  1  0  0  0  0  0  0  0  0  0
    0.0414   -0.8717    5.2893 N   0  0  0  0  0  0  0  0  0  0  0  0
    0.0543   -1.7436    6.6972 S   0  0  1  0  0  0  0  0  0  0  0  0
    1.3045   -1.4818    7.3199 O   0  0  0  0  0  0  0  0  0  0  0  0
   -1.1949   -1.5023    7.3300 O   0  0  0  0  0  0  0  0  0  0  0  0
    0.0665   -3.4490    6.2544 C   0  0  0  0  0  0  0  0  0  0  0  0
   -1.1259   -4.1264    6.0800 C   0  0  0  0  0  0  0  0  0  0  0  0
   -1.1163   -5.4643    5.7326 C   0  0  0  0  0  0  0  0  0  0  0  0
    0.0856   -6.1248    5.5591 C   0  0  0  0  0  0  0  0  0  0  0  0
    0.0960   -7.5835    5.1809 C   0  0  1  0  0  0  0  0  0  0  0  0
    0.0969   -7.7039    3.7871 F   0  0  0  0  0  0  0  0  0  0  0  0
    1.2427   -8.1923    5.7022 F   0  0  0  0  0  0  0  0  0  0  0  0
   -1.0418   -8.2086    5.7022 F   0  0  0  0  0  0  0  0  0  0  0  0
    1.2779   -5.4471    5.7321 C   0  0  0  0  0  0  0  0  0  0  0  0
    1.2684   -4.1082    6.0758 C   0  0  0  0  0  0  0  0  0  0  0  0
    1.2998   -0.4676    4.6476 C   0  0  1  0  0  0  0  0  0  0  0  0
    1.2834   -0.9386    3.1899 C   0  0  1  0  0  0  0  0  0  0  0  0
    1.0042    1.8801    0.0026 H   0  0  0  0  0  0  0  0  0  0  0  0
   -0.5455    1.8639   -0.8728 H   0  0  0  0  0  0  0  0  0  0  0  0
   -0.5286    1.8543    0.9071 H   0  0  0  0  0  0  0  0  0  0  0  0
   -0.0001   -0.4720   -2.1123 H   0  0  0  0  0  0  0  0  0  0  0  0
    0.0470   -2.9856    1.2553 H   0  0  0  0  0  0  0  0  0  0  0  0
    0.0174    0.6838    2.5522 H   0  0  0  0  0  0  0  0  0  0  0  0
   -2.1115   -0.5969    2.6939 H   0  0  0  0  0  0  0  0  0  0  0  0
   -1.1963   -2.0481    3.1700 H   0  0  0  0  0  0  0  0  0  0  0  0
   -1.3402    0.5958    4.6911 H   0  0  0  0  0  0  0  0  0  0  0  0
   -2.0568   -0.9590    5.1875 H   0  0  0  0  0  0  0  0  0  0  0  0
   -2.0649   -3.6103    6.2155 H   0  0  0  0  0  0  0  0  0  0  0  0
   -2.0478   -5.9937    5.5971 H   0  0  0  0  0  0  0  0  0  0  0  0
    2.2170   -5.9630    5.5962 H   0  0  0  0  0  0  0  0  0  0  0  0
    2.1999   -3.5787    6.2110 H   0  0  0  0  0  0  0  0  0  0  0  0
    1.3943    0.6178    4.6798 H   0  0  0  0  0  0  0  0  0  0  0  0
    2.1399   -0.9253    5.1700 H   0  0  0  0  0  0  0  0  0  0  0  0
    1.2802   -2.0282    3.1597 H   0  0  0  0  0  0  0  0  0  0  0  0
    2.1680   -0.5625    2.6761 H   0  0  0  0  0  0  0  0  0  0  0  0
  1  2  1  0
  1 27  1  6
  1 28  1  0
  1 29  1  0
  2  7  1  0
  2  3  2  0
  3  4  1  0
  3 30  1  0
  4  5  1  0
  4  6  2  0
  6  7  1  0
  6 31  1  0
  7  8  1  0
  8 26  1  0
  8  9  1  0
  8 32  1  6
  9 10  1  0
  9 33  1  6
  9 34  1  0
 10 11  1  0
 10 35  1  6
 10 36  1  0
 12 11  1  6
 11 25  1  0
 12 13  2  0
 12 14  2  0
 12 15  1  0
 15 24  2  0
 15 16  1  0
 16 17  2  0
 16 37  1  0
 17 18  1  0
 17 38  1  0
 18 19  1  0
 18 23  2  0
 19 20  1  6
 19 21  1  0
 19 22  1  0
 23 24  1  0
 23 39  1  0
 24 40  1  0
 25 26  1  0
 25 41  1  6
 25 42  1  0
 26 43  1  1
 26 44  1  0
M  CHG  1   4   1
M  END
$$$$
