ZINC000009441646
     RDKit          3D

 50 52  0  0  1  0  0  0  0  0999 V2000
    0.7873   -0.4977    1.2637 C   0  0  1  0  0  0  0  0  0  0  0  0
    1.9788    0.4091    0.9489 C   0  0  2  0  0  0  0  0  0  0  0  0
    1.6277    1.4291    0.7922 H   0  0  0  0  0  0  0  0  0  0  0  0
    2.6681   -0.0820   -0.2979 C   0  0  0  0  0  0  0  0  0  0  0  0
    3.8322   -0.4198   -0.2542 O   0  0  0  0  0  0  0  0  0  0  0  0
    1.9912   -0.1458   -1.4616 N   0  0  0  0  0  0  0  0  0  0  0  0
    2.6582   -0.4958   -2.6407 C   0  0  0  0  0  0  0  0  0  0  0  0
    1.9951   -1.2115   -3.6291 C   0  0  0  0  0  0  0  0  0  0  0  0
    2.6563   -1.5555   -4.7918 C   0  0  0  0  0  0  0  0  0  0  0  0
    3.9773   -1.1884   -4.9722 C   0  0  0  0  0  0  0  0  0  0  0  0
    4.8174   -1.6297   -6.4569 S   0  0  1  0  0  0  0  0  0  0  0  0
    6.2042   -1.6338   -6.1471 O   0  0  0  0  0  0  0  0  0  0  0  0
    4.1353   -2.7597   -6.9832 O   0  0  0  0  0  0  0  0  0  0  0  0
    4.5833   -0.3970   -7.5376 N   0  0  0  0  0  0  0  0  0  0  0  0
    3.4698   -0.2942   -8.4920 C   0  0  1  0  0  0  0  0  0  0  0  0
    3.6810    1.0007   -9.3046 C   0  0  1  0  0  0  0  0  0  0  0  0
    5.2024    1.2632   -9.1508 C   0  0  1  0  0  0  0  0  0  0  0  0
    5.4535    0.7822   -7.6975 C   0  0  1  0  0  0  0  0  0  0  0  0
    4.6402   -0.4754   -3.9902 C   0  0  0  0  0  0  0  0  0  0  0  0
    3.9829   -0.1234   -2.8276 C   0  0  0  0  0  0  0  0  0  0  0  0
    2.9213    0.3839    2.0702 N   0  0  0  0  0  0  0  0  0  0  0  0
    3.2141    1.5356    2.7268 C   0  0  0  0  0  0  0  0  0  0  0  0
    4.0821    1.5375    3.7653 C   0  0  0  0  0  0  0  0  0  0  0  0
    4.3960    2.8247    4.4833 C   0  0  1  0  0  0  0  0  0  0  0  0
    3.5709    2.9454    5.6066 F   0  0  0  0  0  0  0  0  0  0  0  0
    5.7355    2.8187    4.8871 F   0  0  0  0  0  0  0  0  0  0  0  0
    4.1733    3.9050    3.6227 F   0  0  0  0  0  0  0  0  0  0  0  0
    4.6884    0.3409    4.1729 C   0  0  0  0  0  0  0  0  0  0  0  0
    4.3927   -0.8152    3.5123 C   0  0  0  0  0  0  0  0  0  0  0  0
    3.4832   -0.7822    2.4414 C   0  0  0  0  0  0  0  0  0  0  0  0
    3.2095   -1.8094    1.8415 O   0  0  0  0  0  0  0  0  0  0  0  0
    0.0860   -0.4789    0.4295 H   0  0  0  0  0  0  0  0  0  0  0  0
    1.1384   -1.5176    1.4204 H   0  0  0  0  0  0  0  0  0  0  0  0
    0.2887   -0.1425    2.1656 H   0  0  0  0  0  0  0  0  0  0  0  0
    1.0415    0.0509   -1.4816 H   0  0  0  0  0  0  0  0  0  0  0  0
    0.9637   -1.4990   -3.4884 H   0  0  0  0  0  0  0  0  0  0  0  0
    2.1413   -2.1120   -5.5608 H   0  0  0  0  0  0  0  0  0  0  0  0
    3.4732   -1.1556   -9.1598 H   0  0  0  0  0  0  0  0  0  0  0  0
    2.5234   -0.2437   -7.9535 H   0  0  0  0  0  0  0  0  0  0  0  0
    3.4203    0.8458  -10.3516 H   0  0  0  0  0  0  0  0  0  0  0  0
    3.1031    1.8213   -8.8796 H   0  0  0  0  0  0  0  0  0  0  0  0
    5.7751    0.6726   -9.8659 H   0  0  0  0  0  0  0  0  0  0  0  0
    5.4281    2.3246   -9.2537 H   0  0  0  0  0  0  0  0  0  0  0  0
    5.1790    1.5620   -6.9871 H   0  0  0  0  0  0  0  0  0  0  0  0
    6.4980    0.4993   -7.5667 H   0  0  0  0  0  0  0  0  0  0  0  0
    5.6719   -0.1902   -4.1341 H   0  0  0  0  0  0  0  0  0  0  0  0
    4.5012    0.4335   -2.0610 H   0  0  0  0  0  0  0  0  0  0  0  0
    2.7498    2.4601    2.4169 H   0  0  0  0  0  0  0  0  0  0  0  0
    5.3823    0.3347    5.0005 H   0  0  0  0  0  0  0  0  0  0  0  0
    4.8497   -1.7468    3.8115 H   0  0  0  0  0  0  0  0  0  0  0  0
  1  2  1  0
  1 32  1  6
  1 33  1  0
  1 34  1  0
  2  3  1  6
  2  4  1  0
  2 21  1  0
  4  5  2  0
  4  6  1  0
  6  7  1  0
  6 35  1  0
  7 20  2  0
  7  8  1  0
  8  9  2  0
  8 36  1  0
  9 10  1  0
  9 37  1  0
 10 11  1  0
 10 19  2  0
 11 12  2  0
 11 13  2  0
 11 14  1  6
 14 18  1  0
 14 15  1  0
 15 16  1  0
 15 38  1  6
 15 39  1  0
 16 17  1  0
 16 40  1  6
 16 41  1  0
 17 18  1  0
 17 42  1  6
 17 43  1  0
 18 44  1  1
 18 45  1  0
 19 20  1  0
 19 46  1  0
 20 47  1  0
 21 30  1  0
 21 22  1  0
 22 23  2  0
 22 48  1  0
 23 24  1  0
 23 28  1  0
 24 25  1  1
 24 26  1  0
 24 27  1  0
 28 29  2  0
 28 49  1  0
 29 30  1  0
 29 50  1  0
 30 31  2  0
M  END
$$$$
