ZINC000013585478
     RDKit          3D

 65 68  0  0  1  0  0  0  0  0999 V2000
   -1.5375  -10.9065    0.0459 C   0  0  1  0  0  0  0  0  0  0  0  0
   -0.6800   -9.7011    0.3333 C   0  0  0  0  0  0  0  0  0  0  0  0
    0.6142   -9.6427   -0.1489 C   0  0  0  0  0  0  0  0  0  0  0  0
    1.4008   -8.5369    0.1147 C   0  0  0  0  0  0  0  0  0  0  0  0
    0.8931   -7.4894    0.8602 C   0  0  0  0  0  0  0  0  0  0  0  0
    1.8959   -6.0802    1.1967 S   0  0  1  0  0  0  0  0  0  0  0  0
    1.3636   -5.4799    2.3696 O   0  0  0  0  0  0  0  0  0  0  0  0
    3.2451   -6.5128    1.0888 O   0  0  0  0  0  0  0  0  0  0  0  0
    1.6514   -4.9995   -0.0340 N   0  0  0  0  0  0  0  0  0  0  0  0
    0.6697   -3.9231    0.1206 C   0  0  1  0  0  0  0  0  0  0  0  0
    1.3649   -2.6738    0.5973 C   0  0  0  0  0  0  0  0  0  0  0  0
    1.5046   -2.4346    1.9517 C   0  0  0  0  0  0  0  0  0  0  0  0
    2.1422   -1.2887    2.3890 C   0  0  0  0  0  0  0  0  0  0  0  0
    2.6405   -0.3823    1.4720 C   0  0  0  0  0  0  0  0  0  0  0  0
    2.5016   -0.6219    0.1176 C   0  0  0  0  0  0  0  0  0  0  0  0
    1.8678   -1.7699   -0.3197 C   0  0  0  0  0  0  0  0  0  0  0  0
    2.3826   -5.1143   -1.2216 C   0  0  0  0  0  0  0  0  0  0  0  0
    1.7246   -5.3391   -2.4235 C   0  0  0  0  0  0  0  0  0  0  0  0
    2.4470   -5.4519   -3.5952 C   0  0  0  0  0  0  0  0  0  0  0  0
    3.8294   -5.3411   -3.5715 C   0  0  0  0  0  0  0  0  0  0  0  0
    4.5400   -5.4528   -4.7257 O   0  0  0  0  0  0  0  0  0  0  0  0
    5.9602   -5.3284   -4.6278 C   0  0  1  0  0  0  0  0  0  0  0  0
    6.5732   -5.4785   -5.9963 C   0  0  0  0  0  0  0  0  0  0  0  0
    5.8637   -5.6730   -6.9605 O   0  0  0  0  0  0  0  0  0  0  0  0
    7.9098   -5.3968   -6.1487 N   0  0  0  0  0  0  0  0  0  0  0  0
    8.5057   -5.5428   -7.4790 C   0  0  1  0  0  0  0  0  0  0  0  0
   10.0263   -5.4096   -7.3742 C   0  0  2  0  0  0  0  0  0  0  0  0
   10.2820   -4.4740   -6.8767 H   0  0  0  0  0  0  0  0  0  0  0  0
   10.6533   -5.4412   -8.7846 C   0  0  1  0  0  0  0  0  0  0  0  0
   11.9381   -6.2831   -8.5553 C   0  0  1  0  0  0  0  0  0  0  0  0
   11.4490   -7.2769   -7.4718 C   0  0  1  0  0  0  0  0  0  0  0  0
   10.5611   -6.5144   -6.6359 O   0  0  0  0  0  0  0  0  0  0  0  0
    4.4874   -5.1162   -2.3714 C   0  0  0  0  0  0  0  0  0  0  0  0
    3.7662   -4.9979   -1.1996 C   0  0  0  0  0  0  0  0  0  0  0  0
   -0.4016   -7.5472    1.3412 C   0  0  0  0  0  0  0  0  0  0  0  0
   -1.1895   -8.6513    1.0744 C   0  0  0  0  0  0  0  0  0  0  0  0
   -2.0812  -10.7518   -0.8861 H   0  0  0  0  0  0  0  0  0  0  0  0
   -0.9045  -11.7893   -0.0450 H   0  0  0  0  0  0  0  0  0  0  0  0
   -2.2469  -11.0504    0.8608 H   0  0  0  0  0  0  0  0  0  0  0  0
    1.0110  -10.4611   -0.7314 H   0  0  0  0  0  0  0  0  0  0  0  0
    2.4122   -8.4916   -0.2614 H   0  0  0  0  0  0  0  0  0  0  0  0
    0.1900   -3.7284   -0.8386 H   0  0  0  0  0  0  0  0  0  0  0  0
   -0.0837   -4.2205    0.8500 H   0  0  0  0  0  0  0  0  0  0  0  0
    1.1153   -3.1428    2.6681 H   0  0  0  0  0  0  0  0  0  0  0  0
    2.2507   -1.1015    3.4471 H   0  0  0  0  0  0  0  0  0  0  0  0
    3.1381    0.5133    1.8136 H   0  0  0  0  0  0  0  0  0  0  0  0
    2.8906    0.0864   -0.5988 H   0  0  0  0  0  0  0  0  0  0  0  0
    1.7592   -1.9572   -1.3778 H   0  0  0  0  0  0  0  0  0  0  0  0
    0.6483   -5.4261   -2.4421 H   0  0  0  0  0  0  0  0  0  0  0  0
    1.9354   -5.6267   -4.5301 H   0  0  0  0  0  0  0  0  0  0  0  0
    6.2120   -4.3484   -4.2225 H   0  0  0  0  0  0  0  0  0  0  0  0
    6.3484   -6.1048   -3.9686 H   0  0  0  0  0  0  0  0  0  0  0  0
    8.4773   -5.2413   -5.3775 H   0  0  0  0  0  0  0  0  0  0  0  0
    8.2539   -6.5228   -7.8843 H   0  0  0  0  0  0  0  0  0  0  0  0
    8.1175   -4.7663   -8.1382 H   0  0  0  0  0  0  0  0  0  0  0  0
    9.9881   -5.9338   -9.4938 H   0  0  0  0  0  0  0  0  0  0  0  0
   10.9037   -4.4349   -9.1204 H   0  0  0  0  0  0  0  0  0  0  0  0
   12.2320   -6.8069   -9.4649 H   0  0  0  0  0  0  0  0  0  0  0  0
   12.7524   -5.6629   -8.1807 H   0  0  0  0  0  0  0  0  0  0  0  0
   10.9150   -8.1074   -7.9336 H   0  0  0  0  0  0  0  0  0  0  0  0
   12.2926   -7.6460   -6.8886 H   0  0  0  0  0  0  0  0  0  0  0  0
    5.5638   -5.0301   -2.3539 H   0  0  0  0  0  0  0  0  0  0  0  0
    4.2787   -4.8228   -0.2652 H   0  0  0  0  0  0  0  0  0  0  0  0
   -0.7984   -6.7286    1.9233 H   0  0  0  0  0  0  0  0  0  0  0  0
   -2.2010   -8.6964    1.4502 H   0  0  0  0  0  0  0  0  0  0  0  0
  1  2  1  0
  1 37  1  6
  1 38  1  0
  1 39  1  0
  2 36  2  0
  2  3  1  0
  3  4  2  0
  3 40  1  0
  4  5  1  0
  4 41  1  0
  5  6  1  0
  5 35  2  0
  6  7  2  0
  6  8  2  0
  6  9  1  6
  9 10  1  0
  9 17  1  0
 10 11  1  0
 10 42  1  6
 10 43  1  0
 11 16  2  0
 11 12  1  0
 12 13  2  0
 12 44  1  0
 13 14  1  0
 13 45  1  0
 14 15  2  0
 14 46  1  0
 15 16  1  0
 15 47  1  0
 16 48  1  0
 17 34  2  0
 17 18  1  0
 18 19  2  0
 18 49  1  0
 19 20  1  0
 19 50  1  0
 20 21  1  0
 20 33  2  0
 21 22  1  0
 22 23  1  0
 22 51  1  1
 22 52  1  0
 23 24  2  0
 23 25  1  0
 25 26  1  0
 25 53  1  0
 26 27  1  0
 26 54  1  6
 26 55  1  0
 27 28  1  1
 27 32  1  0
 27 29  1  0
 29 30  1  0
 29 56  1  6
 29 57  1  0
 30 31  1  0
 30 58  1  6
 30 59  1  0
 31 32  1  0
 31 60  1  6
 31 61  1  0
 33 34  1  0
 33 62  1  0
 34 63  1  0
 35 36  1  0
 35 64  1  0
 36 65  1  0
M  END
$$$$
