ZINC000240934419
     RDKit          3D

 37 39  0  0  0  0  0  0  0  0999 V2000
    0.0458    0.1499   -1.0835 O   0  0  0  0  0  0  0  0  0  0  0  0
    0.0633    1.2072   -0.4835 C   0  0  0  0  0  0  0  0  0  0  0  0
    1.3410    1.9165   -0.2749 C   0  0  0  0  0  0  0  0  0  0  0  0
    1.3986    3.3058   -0.3842 C   0  0  0  0  0  0  0  0  0  0  0  0
    2.5954    3.9636   -0.1877 C   0  0  0  0  0  0  0  0  0  0  0  0
    3.7438    3.2530    0.1182 C   0  0  0  0  0  0  0  0  0  0  0  0
    3.7058    1.8773    0.2306 C   0  0  0  0  0  0  0  0  0  0  0  0
    2.5071    1.1961    0.0413 C   0  0  0  0  0  0  0  0  0  0  0  0
    2.4617   -0.2803    0.1608 C   0  0  0  0  0  0  0  0  0  0  0  0
    1.5785   -0.8832    1.0557 C   0  0  0  0  0  0  0  0  0  0  0  0
    1.5409   -2.2584    1.1627 C   0  0  0  0  0  0  0  0  0  0  0  0
    2.3773   -3.0387    0.3847 C   0  0  0  0  0  0  0  0  0  0  0  0
    2.3316   -4.5400    0.5067 C   0  0  1  0  0  0  0  0  0  0  0  0
    1.3958   -5.0531   -0.3979 F   0  0  0  0  0  0  0  0  0  0  0  0
    3.5947   -5.0697    0.2217 F   0  0  0  0  0  0  0  0  0  0  0  0
    1.9618   -4.8910    1.8095 F   0  0  0  0  0  0  0  0  0  0  0  0
    3.2553   -2.4462   -0.5052 C   0  0  0  0  0  0  0  0  0  0  0  0
    3.2980   -1.0721   -0.6251 C   0  0  0  0  0  0  0  0  0  0  0  0
   -1.0847    1.7345   -0.0137 N   0  0  0  0  0  0  0  0  0  0  0  0
   -1.4818    2.9854    0.6499 C   0  0  1  0  0  0  0  0  0  0  0  0
   -2.8811    2.7971    0.0477 C   0  0  1  0  0  0  0  0  0  0  0  0
   -3.0356    3.3515   -1.2603 O   0  0  0  0  0  0  0  0  0  0  0  0
   -2.4925    1.3149    0.0550 C   0  0  1  0  0  0  0  0  0  0  0  0
    0.5068    3.8663   -0.6230 H   0  0  0  0  0  0  0  0  0  0  0  0
    2.6368    5.0394   -0.2735 H   0  0  0  0  0  0  0  0  0  0  0  0
    4.6753    3.7781    0.2697 H   0  0  0  0  0  0  0  0  0  0  0  0
    4.6057    1.3301    0.4695 H   0  0  0  0  0  0  0  0  0  0  0  0
    0.9255   -0.2750    1.6641 H   0  0  0  0  0  0  0  0  0  0  0  0
    0.8572   -2.7266    1.8554 H   0  0  0  0  0  0  0  0  0  0  0  0
    3.9057   -3.0604   -1.1103 H   0  0  0  0  0  0  0  0  0  0  0  0
    3.9838   -0.6107   -1.3202 H   0  0  0  0  0  0  0  0  0  0  0  0
   -1.4656    2.9236    1.7380 H   0  0  0  0  0  0  0  0  0  0  0  0
   -0.9600    3.8634    0.2692 H   0  0  0  0  0  0  0  0  0  0  0  0
   -3.6968    3.0540    0.7236 H   0  0  0  0  0  0  0  0  0  0  0  0
   -3.9181    3.2313   -1.6368 H   0  0  0  0  0  0  0  0  0  0  0  0
   -2.8298    0.7734   -0.8288 H   0  0  0  0  0  0  0  0  0  0  0  0
   -2.7449    0.8045    0.9845 H   0  0  0  0  0  0  0  0  0  0  0  0
  1  2  2  0
  2  3  1  0
  2 19  1  0
  3  8  2  0
  3  4  1  0
  4  5  2  0
  4 24  1  0
  5  6  1  0
  5 25  1  0
  6  7  2  0
  6 26  1  0
  7  8  1  0
  7 27  1  0
  8  9  1  0
  9 18  2  0
  9 10  1  0
 10 11  2  0
 10 28  1  0
 11 12  1  0
 11 29  1  0
 12 13  1  0
 12 17  2  0
 13 14  1  6
 13 15  1  0
 13 16  1  0
 17 18  1  0
 17 30  1  0
 18 31  1  0
 19 23  1  0
 19 20  1  0
 20 21  1  0
 20 32  1  1
 20 33  1  0
 21 22  1  0
 21 23  1  0
 21 34  1  1
 22 35  1  0
 23 36  1  6
 23 37  1  0
M  END
$$$$
