ZINC000021740120
     RDKit          3D

 58 61  0  0  1  0  0  0  0  0999 V2000
   -0.0187    1.5258    0.0104 C   0  0  1  0  0  0  0  0  0  0  0  0
    0.0021   -0.0041    0.0020 C   0  0  2  0  0  0  0  0  0  0  0  0
    0.5122   -0.3561   -0.8946 H   0  0  0  0  0  0  0  0  0  0  0  0
   -1.4334   -0.5345    0.0145 C   0  0  1  0  0  0  0  0  0  0  0  0
   -1.4142   -2.0642   -0.0270 C   0  0  1  0  0  0  0  0  0  0  0  0
   -2.4371   -2.4406   -0.0417 H   0  0  0  0  0  0  0  0  0  0  0  0
   -0.6799   -2.5317   -1.2853 C   0  0  1  0  0  0  0  0  0  0  0  0
   -0.6916   -2.5957    1.2148 C   0  0  1  0  0  0  0  0  0  0  0  0
    0.6392   -1.9773    1.2884 N   0  0  0  0  0  0  0  0  0  0  0  0
    1.9987   -2.9138    1.4182 S   0  0  1  0  0  0  0  0  0  0  0  0
    2.9973   -2.0921    2.0072 O   0  0  0  0  0  0  0  0  0  0  0  0
    1.5814   -4.1517    1.9775 O   0  0  0  0  0  0  0  0  0  0  0  0
    2.5469   -3.2671   -0.2187 C   0  0  0  0  0  0  0  0  0  0  0  0
    2.0771   -4.3910   -0.8748 C   0  0  0  0  0  0  0  0  0  0  0  0
    2.5026   -4.6736   -2.1563 C   0  0  0  0  0  0  0  0  0  0  0  0
    3.4088   -3.8226   -2.7911 C   0  0  0  0  0  0  0  0  0  0  0  0
    3.8687   -4.1191   -4.1645 C   0  0  0  0  0  0  0  0  0  0  0  0
    3.4577   -5.1057   -4.7434 O   0  0  0  0  0  0  0  0  0  0  0  0
    4.7438   -3.2954   -4.7747 N   0  0  0  0  0  0  0  0  0  0  0  0
    5.1995   -3.5891   -6.1356 C   0  0  1  0  0  0  0  0  0  0  0  0
    6.1658   -2.5227   -6.5829 C   0  0  0  0  0  0  0  0  0  0  0  0
    5.8590   -1.4096   -7.1977 N   0  0  0  0  0  0  0  0  0  0  0  0
    6.9214   -0.7238   -7.4357 N   0  0  0  0  0  0  0  0  0  0  0  0
    7.9785   -1.3744   -6.9778 C   0  0  0  0  0  0  0  0  0  0  0  0
    9.3587   -1.0952   -6.9681 C   0  0  0  0  0  0  0  0  0  0  0  0
   10.2136   -1.9909   -6.4051 C   0  0  0  0  0  0  0  0  0  0  0  0
    9.7105   -3.1770   -5.8434 C   0  0  0  0  0  0  0  0  0  0  0  0
   10.6563   -4.1702   -5.2188 C   0  0  1  0  0  0  0  0  0  0  0  0
   11.1685   -5.0137   -6.2105 F   0  0  0  0  0  0  0  0  0  0  0  0
   11.7079   -3.4867   -4.5991 F   0  0  0  0  0  0  0  0  0  0  0  0
    9.9703   -4.9323   -4.2670 F   0  0  0  0  0  0  0  0  0  0  0  0
    8.3852   -3.4311   -5.8599 C   0  0  0  0  0  0  0  0  0  0  0  0
    7.5161   -2.5392   -6.4159 N   0  0  0  0  0  0  0  0  0  0  0  0
    3.8785   -2.6903   -2.1237 C   0  0  0  0  0  0  0  0  0  0  0  0
    3.4409   -2.4164   -0.8443 C   0  0  0  0  0  0  0  0  0  0  0  0
    0.7415   -0.5122    1.2437 C   0  0  1  0  0  0  0  0  0  0  0  0
    1.0039    1.9031    0.0027 H   0  0  0  0  0  0  0  0  0  0  0  0
   -0.5459    1.8868   -0.8726 H   0  0  0  0  0  0  0  0  0  0  0  0
   -0.5289    1.8773    0.9072 H   0  0  0  0  0  0  0  0  0  0  0  0
   -1.9355   -0.2021    0.9231 H   0  0  0  0  0  0  0  0  0  0  0  0
   -1.9686   -0.1542   -0.8556 H   0  0  0  0  0  0  0  0  0  0  0  0
    0.3432   -2.1560   -1.2696 H   0  0  0  0  0  0  0  0  0  0  0  0
   -0.6665   -3.6212   -1.3144 H   0  0  0  0  0  0  0  0  0  0  0  0
   -1.1933   -2.1509   -2.1682 H   0  0  0  0  0  0  0  0  0  0  0  0
   -1.2630   -2.3406    2.1072 H   0  0  0  0  0  0  0  0  0  0  0  0
   -0.5879   -3.6783    1.1418 H   0  0  0  0  0  0  0  0  0  0  0  0
    1.3759   -5.0486   -0.3826 H   0  0  0  0  0  0  0  0  0  0  0  0
    2.1357   -5.5516   -2.6672 H   0  0  0  0  0  0  0  0  0  0  0  0
    5.0718   -2.5081   -4.3127 H   0  0  0  0  0  0  0  0  0  0  0  0
    5.6964   -4.5592   -6.1510 H   0  0  0  0  0  0  0  0  0  0  0  0
    4.3429   -3.6090   -6.8093 H   0  0  0  0  0  0  0  0  0  0  0  0
    9.7341   -0.1807   -7.4030 H   0  0  0  0  0  0  0  0  0  0  0  0
   11.2750   -1.7916   -6.3901 H   0  0  0  0  0  0  0  0  0  0  0  0
    8.0096   -4.3457   -5.4254 H   0  0  0  0  0  0  0  0  0  0  0  0
    4.5800   -2.0281   -2.6091 H   0  0  0  0  0  0  0  0  0  0  0  0
    3.8033   -1.5404   -0.3269 H   0  0  0  0  0  0  0  0  0  0  0  0
    1.7904   -0.2207    1.1903 H   0  0  0  0  0  0  0  0  0  0  0  0
    0.2870   -0.0867    2.1384 H   0  0  0  0  0  0  0  0  0  0  0  0
  1  2  1  0
  1 37  1  6
  1 38  1  0
  1 39  1  0
  2  3  1  6
  2 36  1  0
  2  4  1  0
  4  5  1  0
  4 40  1  1
  4 41  1  0
  5  6  1  6
  5  7  1  0
  5  8  1  0
  7 42  1  1
  7 43  1  0
  7 44  1  0
  8  9  1  0
  8 45  1  1
  8 46  1  0
 10  9  1  6
  9 36  1  0
 10 11  2  0
 10 12  2  0
 10 13  1  0
 13 35  2  0
 13 14  1  0
 14 15  2  0
 14 47  1  0
 15 16  1  0
 15 48  1  0
 16 17  1  0
 16 34  2  0
 17 18  2  0
 17 19  1  0
 19 20  1  0
 19 49  1  0
 20 21  1  0
 20 50  1  1
 20 51  1  0
 21 33  1  0
 21 22  2  0
 22 23  1  0
 23 24  2  0
 24 33  1  0
 24 25  1  0
 25 26  2  0
 25 52  1  0
 26 27  1  0
 26 53  1  0
 27 28  1  0
 27 32  2  0
 28 29  1  6
 28 30  1  0
 28 31  1  0
 32 33  1  0
 32 54  1  0
 34 35  1  0
 34 55  1  0
 35 56  1  0
 36 57  1  6
 36 58  1  0
M  END
$$$$
