ZINC000000387133
     RDKit          3D

 39 40  0  0  1  0  0  0  0  0999 V2000
   -0.0434    1.5465   -0.0720 C   0  0  1  0  0  0  0  0  0  0  0  0
   -0.0264    0.0393    0.1909 C   0  0  1  0  0  0  0  0  0  0  0  0
   -1.0462   -0.3184    0.3323 H   0  0  0  0  0  0  0  0  0  0  0  0
    0.6106   -0.6827   -1.0006 C   0  0  1  0  0  0  0  0  0  0  0  0
    2.0822   -0.2770   -1.1104 C   0  0  1  0  0  0  0  0  0  0  0  0
    2.8246   -0.6951    0.1609 C   0  0  1  0  0  0  0  0  0  0  0  0
    2.2127    0.0268    1.3655 C   0  0  2  0  0  0  0  0  0  0  0  0
    2.3831    1.0995    1.2740 H   0  0  0  0  0  0  0  0  0  0  0  0
    2.8586   -0.4870    2.6538 C   0  0  1  0  0  0  0  0  0  0  0  0
    0.7656   -0.2414    1.3962 N   0  0  0  0  0  0  0  0  0  0  0  0
    0.0487   -0.8485    2.7600 S   0  0  1  0  0  0  0  0  0  0  0  0
   -1.2114   -1.3654    2.3547 O   0  0  0  0  0  0  0  0  0  0  0  0
    1.0353   -1.6322    3.4170 O   0  0  0  0  0  0  0  0  0  0  0  0
   -0.2913    0.5158    3.8219 C   0  0  0  0  0  0  0  0  0  0  0  0
    0.6535    0.9267    4.7432 C   0  0  0  0  0  0  0  0  0  0  0  0
    0.3867    1.9972    5.5764 C   0  0  0  0  0  0  0  0  0  0  0  0
   -0.8247    2.6568    5.4878 C   0  0  0  0  0  0  0  0  0  0  0  0
   -1.7694    2.2464    4.5655 C   0  0  0  0  0  0  0  0  0  0  0  0
   -3.0904    2.9653    4.4692 C   0  0  1  0  0  0  0  0  0  0  0  0
   -3.1260    4.0032    5.4066 F   0  0  0  0  0  0  0  0  0  0  0  0
   -3.2410    3.4936    3.1826 F   0  0  0  0  0  0  0  0  0  0  0  0
   -4.1305    2.0664    4.7289 F   0  0  0  0  0  0  0  0  0  0  0  0
   -1.5010    1.1789    3.7296 C   0  0  0  0  0  0  0  0  0  0  0  0
    0.9772    1.9023   -0.2131 H   0  0  0  0  0  0  0  0  0  0  0  0
   -0.6272    1.7522   -0.9693 H   0  0  0  0  0  0  0  0  0  0  0  0
   -0.4924    2.0587    0.7789 H   0  0  0  0  0  0  0  0  0  0  0  0
    0.5404   -1.7603   -0.8528 H   0  0  0  0  0  0  0  0  0  0  0  0
    0.0876   -0.4056   -1.9158 H   0  0  0  0  0  0  0  0  0  0  0  0
    2.5315   -0.7704   -1.9722 H   0  0  0  0  0  0  0  0  0  0  0  0
    2.1527    0.8037   -1.2333 H   0  0  0  0  0  0  0  0  0  0  0  0
    2.7335   -1.7726    0.2977 H   0  0  0  0  0  0  0  0  0  0  0  0
    3.8774   -0.4268    0.0723 H   0  0  0  0  0  0  0  0  0  0  0  0
    3.9020   -0.1735    2.6872 H   0  0  0  0  0  0  0  0  0  0  0  0
    2.3287   -0.0781    3.5141 H   0  0  0  0  0  0  0  0  0  0  0  0
    2.8053   -1.5754    2.6779 H   0  0  0  0  0  0  0  0  0  0  0  0
    1.6000    0.4113    4.8125 H   0  0  0  0  0  0  0  0  0  0  0  0
    1.1247    2.3178    6.2968 H   0  0  0  0  0  0  0  0  0  0  0  0
   -1.0334    3.4926    6.1391 H   0  0  0  0  0  0  0  0  0  0  0  0
   -2.2390    0.8583    3.0092 H   0  0  0  0  0  0  0  0  0  0  0  0
  1  2  1  0
  1 24  1  6
  1 25  1  0
  1 26  1  0
  2  3  1  1
  2 10  1  0
  2  4  1  0
  4  5  1  0
  4 27  1  1
  4 28  1  0
  5  6  1  0
  5 29  1  6
  5 30  1  0
  6  7  1  0
  6 31  1  1
  6 32  1  0
  7  8  1  6
  7  9  1  0
  7 10  1  0
  9 33  1  1
  9 34  1  0
  9 35  1  0
 11 10  1  6
 11 12  2  0
 11 13  2  0
 11 14  1  0
 14 23  2  0
 14 15  1  0
 15 16  2  0
 15 36  1  0
 16 17  1  0
 16 37  1  0
 17 18  2  0
 17 38  1  0
 18 19  1  0
 18 23  1  0
 19 20  1  1
 19 21  1  0
 19 22  1  0
 23 39  1  0
M  END
$$$$
