ZINC000028208414
     RDKit          3D

 48 48  0  0  1  0  0  0  0  0999 V2000
   -0.0187    1.5258    0.0104 C   0  0  1  0  0  0  0  0  0  0  0  0
    0.0021   -0.0041    0.0020 C   0  0  1  0  0  0  0  0  0  0  0  0
   -1.4333   -0.5336    0.0129 C   0  0  1  0  0  0  0  0  0  0  0  0
   -1.4126   -2.0635    0.0045 C   0  0  1  0  0  0  0  0  0  0  0  0
   -0.8102   -2.4233    0.8386 H   0  0  0  0  0  0  0  0  0  0  0  0
   -2.8413   -2.5937    0.1410 C   0  0  1  0  0  0  0  0  0  0  0  0
   -0.8342   -2.5371   -1.2555 N   0  0  0  0  0  0  0  0  0  0  0  0
   -0.2517   -3.7510   -1.3153 C   0  0  0  0  0  0  0  0  0  0  0  0
   -0.2062   -4.4512   -0.3261 O   0  0  0  0  0  0  0  0  0  0  0  0
    0.3432   -4.2382   -2.6114 C   0  0  1  0  0  0  0  0  0  0  0  0
    0.9358   -5.6340   -2.4077 C   0  0  1  0  0  0  0  0  0  0  0  0
    1.5307   -6.1212   -3.7038 C   0  0  0  0  0  0  0  0  0  0  0  0
    0.7511   -6.8294   -4.5991 C   0  0  0  0  0  0  0  0  0  0  0  0
    1.2968   -7.2763   -5.7879 C   0  0  0  0  0  0  0  0  0  0  0  0
    2.6219   -7.0146   -6.0817 C   0  0  0  0  0  0  0  0  0  0  0  0
    3.3176   -7.5847   -7.5969 S   0  0  1  0  0  0  0  0  0  0  0  0
    4.7201   -7.6733   -7.3862 O   0  0  0  0  0  0  0  0  0  0  0  0
    2.5232   -8.6867   -8.0136 O   0  0  0  0  0  0  0  0  0  0  0  0
    3.0882   -6.3910   -8.7215 N   0  0  0  0  0  0  0  0  0  0  0  0
    4.1019   -5.3486   -8.9004 C   0  0  1  0  0  0  0  0  0  0  0  0
    1.8716   -6.3774   -9.5374 C   0  0  1  0  0  0  0  0  0  0  0  0
    3.4012   -6.3051   -5.1871 C   0  0  0  0  0  0  0  0  0  0  0  0
    2.8545   -5.8549   -3.9999 C   0  0  0  0  0  0  0  0  0  0  0  0
    1.0039    1.9031    0.0027 H   0  0  0  0  0  0  0  0  0  0  0  0
   -0.5459    1.8868   -0.8726 H   0  0  0  0  0  0  0  0  0  0  0  0
   -0.5289    1.8773    0.9072 H   0  0  0  0  0  0  0  0  0  0  0  0
    0.5123   -0.3556   -0.8948 H   0  0  0  0  0  0  0  0  0  0  0  0
    0.5293   -0.3651    0.8851 H   0  0  0  0  0  0  0  0  0  0  0  0
   -1.9435   -0.1821    0.9097 H   0  0  0  0  0  0  0  0  0  0  0  0
   -1.9605   -0.1726   -0.8702 H   0  0  0  0  0  0  0  0  0  0  0  0
   -2.8265   -3.6836    0.1350 H   0  0  0  0  0  0  0  0  0  0  0  0
   -3.2715   -2.2413    1.0784 H   0  0  0  0  0  0  0  0  0  0  0  0
   -3.4436   -2.2339   -0.6932 H   0  0  0  0  0  0  0  0  0  0  0  0
   -0.8706   -1.9771   -2.0466 H   0  0  0  0  0  0  0  0  0  0  0  0
   -0.4340   -4.2812   -3.3744 H   0  0  0  0  0  0  0  0  0  0  0  0
    1.1286   -3.5531   -2.9309 H   0  0  0  0  0  0  0  0  0  0  0  0
    1.7130   -5.5910   -1.6447 H   0  0  0  0  0  0  0  0  0  0  0  0
    0.1505   -6.3190   -2.0882 H   0  0  0  0  0  0  0  0  0  0  0  0
   -0.2842   -7.0339   -4.3695 H   0  0  0  0  0  0  0  0  0  0  0  0
    0.6879   -7.8302   -6.4871 H   0  0  0  0  0  0  0  0  0  0  0  0
    4.8222   -5.6677   -9.6536 H   0  0  0  0  0  0  0  0  0  0  0  0
    3.6209   -4.4260   -9.2255 H   0  0  0  0  0  0  0  0  0  0  0  0
    4.6168   -5.1764   -7.9552 H   0  0  0  0  0  0  0  0  0  0  0  0
    1.1009   -5.7963   -9.0309 H   0  0  0  0  0  0  0  0  0  0  0  0
    2.0886   -5.9268  -10.5059 H   0  0  0  0  0  0  0  0  0  0  0  0
    1.5199   -7.3988   -9.6825 H   0  0  0  0  0  0  0  0  0  0  0  0
    4.4364   -6.1003   -5.4168 H   0  0  0  0  0  0  0  0  0  0  0  0
    3.4632   -5.3007   -3.3010 H   0  0  0  0  0  0  0  0  0  0  0  0
  1  2  1  0
  1 24  1  6
  1 25  1  0
  1 26  1  0
  2  3  1  0
  2 27  1  6
  2 28  1  0
  3  4  1  0
  3 29  1  1
  3 30  1  0
  4  5  1  1
  4  6  1  0
  4  7  1  0
  6 31  1  1
  6 32  1  0
  6 33  1  0
  7  8  1  0
  7 34  1  0
  8  9  2  0
  8 10  1  0
 10 11  1  0
 10 35  1  6
 10 36  1  0
 11 12  1  0
 11 37  1  1
 11 38  1  0
 12 23  2  0
 12 13  1  0
 13 14  2  0
 13 39  1  0
 14 15  1  0
 14 40  1  0
 15 16  1  0
 15 22  2  0
 16 17  2  0
 16 18  2  0
 16 19  1  6
 19 20  1  0
 19 21  1  0
 20 41  1  6
 20 42  1  0
 20 43  1  0
 21 44  1  1
 21 45  1  0
 21 46  1  0
 22 23  1  0
 22 47  1  0
 23 48  1  0
M  END
$$$$
