ZINC000013267702
     RDKit          3D

 35 36  0  0  1  0  0  0  0  0999 V2000
    0.0021   -0.0041    0.0020 O   0  0  0  0  0  0  0  0  0  0  0  0
   -0.0145    1.2150    0.0087 C   0  0  0  0  0  0  0  0  0  0  0  0
    1.0330    1.8389    0.0021 O   0  0  0  0  0  0  0  0  0  0  0  0
   -1.3296    1.9507    0.0190 C   0  0  2  0  0  0  0  0  0  0  0  0
   -2.1169    1.2838    0.3705 H   0  0  0  0  0  0  0  0  0  0  0  0
   -1.6591    2.4278   -1.3974 C   0  0  1  0  0  0  0  0  0  0  0  0
   -3.0102    3.1465   -1.3940 C   0  0  1  0  0  0  0  0  0  0  0  0
   -2.9303    4.3714   -0.4776 C   0  0  1  0  0  0  0  0  0  0  0  0
   -2.4733    3.9395    0.8503 N   0  0  0  0  0  0  0  0  0  0  0  0
   -3.3423    4.3216    2.2073 S   0  0  1  0  0  0  0  0  0  0  0  0
   -2.4284    4.2778    3.2945 O   0  0  0  0  0  0  0  0  0  0  0  0
   -4.1085    5.4732    1.8819 O   0  0  0  0  0  0  0  0  0  0  0  0
   -4.4950    3.0158    2.4733 C   0  0  0  0  0  0  0  0  0  0  0  0
   -5.7499    3.0735    1.8964 C   0  0  0  0  0  0  0  0  0  0  0  0
   -6.6543    2.0491    2.1051 C   0  0  0  0  0  0  0  0  0  0  0  0
   -6.3036    0.9667    2.8903 C   0  0  0  0  0  0  0  0  0  0  0  0
   -7.2897   -0.1498    3.1183 C   0  0  1  0  0  0  0  0  0  0  0  0
   -7.1342   -1.1198    2.1222 F   0  0  0  0  0  0  0  0  0  0  0  0
   -7.0589   -0.7271    4.3715 F   0  0  0  0  0  0  0  0  0  0  0  0
   -8.5913    0.3610    3.0726 F   0  0  0  0  0  0  0  0  0  0  0  0
   -5.0482    0.9084    3.4661 C   0  0  0  0  0  0  0  0  0  0  0  0
   -4.1424    1.9310    3.2542 C   0  0  0  0  0  0  0  0  0  0  0  0
   -1.2309    3.1616    0.9521 C   0  0  1  0  0  0  0  0  0  0  0  0
   -0.8838    3.1136   -1.7390 H   0  0  0  0  0  0  0  0  0  0  0  0
   -1.7058    1.5698   -2.0679 H   0  0  0  0  0  0  0  0  0  0  0  0
   -3.2551    3.4655   -2.4071 H   0  0  0  0  0  0  0  0  0  0  0  0
   -3.7819    2.4687   -1.0290 H   0  0  0  0  0  0  0  0  0  0  0  0
   -2.2239    5.0915   -0.8907 H   0  0  0  0  0  0  0  0  0  0  0  0
   -3.9156    4.8299   -0.3936 H   0  0  0  0  0  0  0  0  0  0  0  0
   -6.0239    3.9191    1.2830 H   0  0  0  0  0  0  0  0  0  0  0  0
   -7.6350    2.0944    1.6550 H   0  0  0  0  0  0  0  0  0  0  0  0
   -4.7740    0.0627    4.0792 H   0  0  0  0  0  0  0  0  0  0  0  0
   -3.1616    1.8855    3.7040 H   0  0  0  0  0  0  0  0  0  0  0  0
   -1.0952    2.8225    1.9790 H   0  0  0  0  0  0  0  0  0  0  0  0
   -0.3856    3.7826    0.6554 H   0  0  0  0  0  0  0  0  0  0  0  0
  1  2  2  0
  2  3  1  0
  2  4  1  0
  4  5  1  1
  4 23  1  0
  4  6  1  0
  6  7  1  0
  6 24  1  6
  6 25  1  0
  7  8  1  0
  7 26  1  6
  7 27  1  0
  8  9  1  0
  8 28  1  6
  8 29  1  0
 10  9  1  6
  9 23  1  0
 10 11  2  0
 10 12  2  0
 10 13  1  0
 13 22  2  0
 13 14  1  0
 14 15  2  0
 14 30  1  0
 15 16  1  0
 15 31  1  0
 16 17  1  0
 16 21  2  0
 17 18  1  6
 17 19  1  0
 17 20  1  0
 21 22  1  0
 21 32  1  0
 22 33  1  0
 23 34  1  1
 23 35  1  0
M  END
$$$$
