ZINC000096170964
     RDKit          3D

 36 37  0  0  1  0  0  0  0  0999 V2000
   -0.5589    0.8579    0.2458 C   0  0  1  0  0  0  0  0  0  0  0  0
   -0.0749   -0.5926    0.2956 C   0  0  1  0  0  0  0  0  0  0  0  0
   -0.9020   -1.2444    0.5771 H   0  0  0  0  0  0  0  0  0  0  0  0
    0.4575   -1.0039   -1.0807 C   0  0  1  0  0  0  0  0  0  0  0  0
    1.0666   -2.4049   -0.9899 C   0  0  1  0  0  0  0  0  0  0  0  0
    2.2368   -2.3913   -0.0036 C   0  0  1  0  0  0  0  0  0  0  0  0
    1.7245   -1.9958    1.3849 C   0  0  1  0  0  0  0  0  0  0  0  0
    1.0077   -0.7171    1.2811 N   0  0  0  0  0  0  0  0  0  0  0  0
    1.4167    0.5607    2.2519 S   0  0  1  0  0  0  0  0  0  0  0  0
    2.6930    0.2573    2.7980 O   0  0  0  0  0  0  0  0  0  0  0  0
    1.1529    1.7369    1.4994 O   0  0  0  0  0  0  0  0  0  0  0  0
    0.2868    0.5711    3.6039 C   0  0  0  0  0  0  0  0  0  0  0  0
   -0.8231    1.3938    3.5704 C   0  0  0  0  0  0  0  0  0  0  0  0
   -1.7104    1.4016    4.6317 C   0  0  0  0  0  0  0  0  0  0  0  0
   -3.2297    2.5266    4.5862 Br  0  0  0  0  0  0  0  0  0  0  0  0
   -1.4863    0.5859    5.7259 C   0  0  0  0  0  0  0  0  0  0  0  0
   -0.3758   -0.2368    5.7586 C   0  0  0  0  0  0  0  0  0  0  0  0
   -0.1317   -1.1259    6.9506 C   0  0  1  0  0  0  0  0  0  0  0  0
   -1.1563   -0.9441    7.8856 F   0  0  0  0  0  0  0  0  0  0  0  0
   -0.1085   -2.4626    6.5383 F   0  0  0  0  0  0  0  0  0  0  0  0
    1.0963   -0.7966    7.5343 F   0  0  0  0  0  0  0  0  0  0  0  0
    0.5077   -0.2480    4.6956 C   0  0  0  0  0  0  0  0  0  0  0  0
    0.2229    1.4875   -0.1789 H   0  0  0  0  0  0  0  0  0  0  0  0
   -1.4533    0.9214   -0.3740 H   0  0  0  0  0  0  0  0  0  0  0  0
   -0.7913    1.1982    1.2549 H   0  0  0  0  0  0  0  0  0  0  0  0
   -0.3608   -1.0089   -1.8007 H   0  0  0  0  0  0  0  0  0  0  0  0
    1.2210   -0.2954   -1.4020 H   0  0  0  0  0  0  0  0  0  0  0  0
    0.3090   -3.1085   -0.6448 H   0  0  0  0  0  0  0  0  0  0  0  0
    1.4241   -2.7099   -1.9734 H   0  0  0  0  0  0  0  0  0  0  0  0
    2.6848   -3.3839    0.0430 H   0  0  0  0  0  0  0  0  0  0  0  0
    2.9835   -1.6698   -0.3351 H   0  0  0  0  0  0  0  0  0  0  0  0
    1.0458   -2.7636    1.7563 H   0  0  0  0  0  0  0  0  0  0  0  0
    2.5670   -1.8882    2.0681 H   0  0  0  0  0  0  0  0  0  0  0  0
   -0.9976    2.0308    2.7159 H   0  0  0  0  0  0  0  0  0  0  0  0
   -2.1785    0.5919    6.5549 H   0  0  0  0  0  0  0  0  0  0  0  0
    1.3750   -0.8911    4.7213 H   0  0  0  0  0  0  0  0  0  0  0  0
  1  2  1  0
  1 23  1  6
  1 24  1  0
  1 25  1  0
  2  3  1  1
  2  8  1  0
  2  4  1  0
  4  5  1  0
  4 26  1  6
  4 27  1  0
  5  6  1  0
  5 28  1  1
  5 29  1  0
  6  7  1  0
  6 30  1  1
  6 31  1  0
  7  8  1  0
  7 32  1  1
  7 33  1  0
  9  8  1  6
  9 10  2  0
  9 11  2  0
  9 12  1  0
 12 22  2  0
 12 13  1  0
 13 14  2  0
 13 34  1  0
 14 15  1  0
 14 16  1  0
 16 17  2  0
 16 35  1  0
 17 18  1  0
 17 22  1  0
 18 19  1  1
 18 20  1  0
 18 21  1  0
 22 36  1  0
M  END
$$$$
