ZINC000822662145
     RDKit          3D

 37 38  0  0  1  0  0  0  0  0999 V2000
    0.1183    1.4078    0.2270 C   0  0  1  0  0  0  0  0  0  0  0  0
    0.0250   -0.1087    0.0469 C   0  0  1  0  0  0  0  0  0  0  0  0
    0.6058   -0.4973   -1.3142 C   0  0  1  0  0  0  0  0  0  0  0  0
    0.1031    0.0684   -2.0987 H   0  0  0  0  0  0  0  0  0  0  0  0
    2.0433   -0.1957   -1.3374 N   0  0  1  0  0  0  0  0  0  0  0  0
    2.1875    0.7732   -1.0955 H   0  0  0  0  0  0  0  0  0  0  0  0
    2.5211   -0.7835   -0.6709 H   0  0  0  0  0  0  0  0  0  0  0  0
    2.5750   -0.4488   -2.6832 C   0  0  1  0  0  0  0  0  0  0  0  0
    4.0193   -0.0225   -2.7410 C   0  0  0  0  0  0  0  0  0  0  0  0
    5.0181   -0.9613   -2.5325 C   0  0  0  0  0  0  0  0  0  0  0  0
    6.3452   -0.5651   -2.5865 C   0  0  0  0  0  0  0  0  0  0  0  0
    6.6276    0.7662   -2.8492 C   0  0  0  0  0  0  0  0  0  0  0  0
    5.5728    1.6553   -3.0487 C   0  0  0  0  0  0  0  0  0  0  0  0
    5.8570    3.0797   -3.3301 C   0  0  0  0  0  0  0  0  0  0  0  0
    7.0132    3.4727   -3.3868 O   0  0  0  0  0  0  0  0  0  0  0  0
    4.9357    3.8637   -3.5059 O   0  0  0  0  0  0  0  0  0  0  0  0
    4.3149    1.2332   -2.9937 N   0  0  0  0  0  0  0  0  0  0  0  0
    0.3981   -1.9718   -1.5465 C   0  0  0  0  0  0  0  0  0  0  0  0
    1.2377   -2.9075   -0.9617 C   0  0  0  0  0  0  0  0  0  0  0  0
    1.0164   -4.2512   -1.1975 C   0  0  0  0  0  0  0  0  0  0  0  0
    0.0218   -4.6460   -1.9681 N   0  0  0  0  0  0  0  0  0  0  0  0
   -0.7962   -3.7844   -2.5404 C   0  0  0  0  0  0  0  0  0  0  0  0
   -0.6405   -2.4251   -2.3453 C   0  0  0  0  0  0  0  0  0  0  0  0
    1.1662    1.7050    0.2685 H   0  0  0  0  0  0  0  0  0  0  0  0
   -0.3670    1.9041   -0.6135 H   0  0  0  0  0  0  0  0  0  0  0  0
   -0.3778    1.6948    1.1541 H   0  0  0  0  0  0  0  0  0  0  0  0
    0.5890   -0.6038    0.8374 H   0  0  0  0  0  0  0  0  0  0  0  0
   -1.0192   -0.4170    0.0978 H   0  0  0  0  0  0  0  0  0  0  0  0
    2.5009   -1.5126   -2.9090 H   0  0  0  0  0  0  0  0  0  0  0  0
    1.9991    0.1188   -3.4141 H   0  0  0  0  0  0  0  0  0  0  0  0
    4.7645   -1.9913   -2.3296 H   0  0  0  0  0  0  0  0  0  0  0  0
    7.1412   -1.2775   -2.4272 H   0  0  0  0  0  0  0  0  0  0  0  0
    7.6503    1.1099   -2.8982 H   0  0  0  0  0  0  0  0  0  0  0  0
    2.0544   -2.5904   -0.3303 H   0  0  0  0  0  0  0  0  0  0  0  0
    1.6659   -4.9864   -0.7458 H   0  0  0  0  0  0  0  0  0  0  0  0
   -1.5996   -4.1454   -3.1654 H   0  0  0  0  0  0  0  0  0  0  0  0
   -1.3139   -1.7244   -2.8164 H   0  0  0  0  0  0  0  0  0  0  0  0
  1  2  1  0
  1 24  1  1
  1 25  1  0
  1 26  1  0
  2  3  1  0
  2 27  1  1
  2 28  1  0
  3  4  1  6
  3  5  1  0
  3 18  1  0
  5  6  1  1
  5  7  1  0
  5  8  1  0
  8  9  1  0
  8 29  1  6
  8 30  1  0
  9 17  2  0
  9 10  1  0
 10 11  2  0
 10 31  1  0
 11 12  1  0
 11 32  1  0
 12 13  2  0
 12 33  1  0
 13 14  1  0
 13 17  1  0
 14 15  2  0
 14 16  1  0
 18 23  2  0
 18 19  1  0
 19 20  2  0
 19 34  1  0
 20 21  1  0
 20 35  1  0
 21 22  2  0
 22 23  1  0
 22 36  1  0
 23 37  1  0
M  CHG  1   5   1
M  END
$$$$
