ZINC000009478177
     RDKit          3D

 52 54  0  0  1  0  0  0  0  0999 V2000
   -0.0187    1.5258    0.0104 C   0  0  1  0  0  0  0  0  0  0  0  0
    0.0021   -0.0041    0.0020 C   0  0  2  0  0  0  0  0  0  0  0  0
    0.5293   -0.3651    0.8851 H   0  0  0  0  0  0  0  0  0  0  0  0
    0.6817   -0.4723   -1.1926 O   0  0  0  0  0  0  0  0  0  0  0  0
    2.0083   -0.6580   -1.1058 C   0  0  0  0  0  0  0  0  0  0  0  0
    2.5825   -0.4365   -0.0661 O   0  0  0  0  0  0  0  0  0  0  0  0
    2.7813   -1.1426   -2.3052 C   0  0  1  0  0  0  0  0  0  0  0  0
    2.6207   -0.1433   -3.4532 C   0  0  1  0  0  0  0  0  0  0  0  0
    3.3792   -0.6562   -4.6813 C   0  0  1  0  0  0  0  0  0  0  0  0
    4.7738   -0.9185   -4.3003 N   0  0  0  0  0  0  0  0  0  0  0  0
    6.0225   -0.2389   -5.1495 S   0  0  1  0  0  0  0  0  0  0  0  0
    7.1551   -1.0688   -4.9308 O   0  0  0  0  0  0  0  0  0  0  0  0
    5.5140    0.0570   -6.4429 O   0  0  0  0  0  0  0  0  0  0  0  0
    6.3867    1.3096   -4.3918 C   0  0  0  0  0  0  0  0  0  0  0  0
    5.7395    2.4552   -4.8150 C   0  0  0  0  0  0  0  0  0  0  0  0
    6.0253    3.6703   -4.2205 C   0  0  0  0  0  0  0  0  0  0  0  0
    6.9578    3.7393   -3.2026 C   0  0  0  0  0  0  0  0  0  0  0  0
    7.6045    2.5932   -2.7787 C   0  0  0  0  0  0  0  0  0  0  0  0
    8.6216    2.6686   -1.6693 C   0  0  1  0  0  0  0  0  0  0  0  0
    8.7379    3.9925   -1.2323 F   0  0  0  0  0  0  0  0  0  0  0  0
    8.2104    1.8603   -0.6040 F   0  0  0  0  0  0  0  0  0  0  0  0
    9.8608    2.2228   -2.1416 F   0  0  0  0  0  0  0  0  0  0  0  0
    7.3157    1.3779   -3.3701 C   0  0  0  0  0  0  0  0  0  0  0  0
    5.0394   -1.7948   -3.1512 C   0  0  1  0  0  0  0  0  0  0  0  0
    4.2622   -1.2691   -1.9402 C   0  0  1  0  0  0  0  0  0  0  0  0
   -1.4117   -0.5257    0.0127 C   0  0  0  0  0  0  0  0  0  0  0  0
   -2.1052   -0.6658   -1.1750 C   0  0  0  0  0  0  0  0  0  0  0  0
   -3.4018   -1.1441   -1.1664 C   0  0  0  0  0  0  0  0  0  0  0  0
   -4.0060   -1.4833    0.0323 C   0  0  0  0  0  0  0  0  0  0  0  0
   -5.2733   -1.9514    0.0418 F   0  0  0  0  0  0  0  0  0  0  0  0
   -3.3103   -1.3430    1.2212 C   0  0  0  0  0  0  0  0  0  0  0  0
   -2.0122   -0.8691    1.2097 C   0  0  0  0  0  0  0  0  0  0  0  0
    1.0039    1.9031    0.0027 H   0  0  0  0  0  0  0  0  0  0  0  0
   -0.5459    1.8868   -0.8726 H   0  0  0  0  0  0  0  0  0  0  0  0
   -0.5289    1.8773    0.9072 H   0  0  0  0  0  0  0  0  0  0  0  0
    2.3992   -2.1154   -2.6147 H   0  0  0  0  0  0  0  0  0  0  0  0
    1.5637   -0.0361   -3.6970 H   0  0  0  0  0  0  0  0  0  0  0  0
    3.0252    0.8234   -3.1533 H   0  0  0  0  0  0  0  0  0  0  0  0
    2.9182   -1.5776   -5.0370 H   0  0  0  0  0  0  0  0  0  0  0  0
    3.3510    0.0967   -5.4689 H   0  0  0  0  0  0  0  0  0  0  0  0
    5.0109    2.4013   -5.6103 H   0  0  0  0  0  0  0  0  0  0  0  0
    5.5201    4.5656   -4.5516 H   0  0  0  0  0  0  0  0  0  0  0  0
    7.1816    4.6886   -2.7387 H   0  0  0  0  0  0  0  0  0  0  0  0
    7.8209    0.4826   -3.0390 H   0  0  0  0  0  0  0  0  0  0  0  0
    4.7137   -2.8090   -3.3822 H   0  0  0  0  0  0  0  0  0  0  0  0
    6.1065   -1.7931   -2.9293 H   0  0  0  0  0  0  0  0  0  0  0  0
    4.6512   -0.2918   -1.6546 H   0  0  0  0  0  0  0  0  0  0  0  0
    4.3736   -1.9632   -1.1072 H   0  0  0  0  0  0  0  0  0  0  0  0
   -1.6337   -0.4011   -2.1098 H   0  0  0  0  0  0  0  0  0  0  0  0
   -3.9436   -1.2528   -2.0943 H   0  0  0  0  0  0  0  0  0  0  0  0
   -3.7808   -1.6070    2.1568 H   0  0  0  0  0  0  0  0  0  0  0  0
   -1.4692   -0.7599    2.1368 H   0  0  0  0  0  0  0  0  0  0  0  0
  1  2  1  0
  1 33  1  6
  1 34  1  0
  1 35  1  0
  2  3  1  1
  2  4  1  0
  2 26  1  0
  4  5  1  0
  5  6  2  0
  5  7  1  0
  7 25  1  0
  7  8  1  0
  7 36  1  6
  8  9  1  0
  8 37  1  6
  8 38  1  0
  9 10  1  0
  9 39  1  6
  9 40  1  0
 11 10  1  1
 10 24  1  0
 11 12  2  0
 11 13  2  0
 11 14  1  0
 14 23  2  0
 14 15  1  0
 15 16  2  0
 15 41  1  0
 16 17  1  0
 16 42  1  0
 17 18  2  0
 17 43  1  0
 18 19  1  0
 18 23  1  0
 19 20  1  1
 19 21  1  0
 19 22  1  0
 23 44  1  0
 24 25  1  0
 24 45  1  6
 24 46  1  0
 25 47  1  1
 25 48  1  0
 26 32  2  0
 26 27  1  0
 27 28  2  0
 27 49  1  0
 28 29  1  0
 28 50  1  0
 29 30  1  0
 29 31  2  0
 31 32  1  0
 31 51  1  0
 32 52  1  0
M  END
$$$$
