ZINC000009511985
     RDKit          3D

 51 53  0  0  1  0  0  0  0  0999 V2000
    0.4962    1.5124    0.5355 C   0  0  1  0  0  0  0  0  0  0  0  0
   -0.0118    0.1154    0.1731 C   0  0  2  0  0  0  0  0  0  0  0  0
   -1.0942    0.1438    0.0472 H   0  0  0  0  0  0  0  0  0  0  0  0
    0.3307   -0.8221    1.2454 N   0  0  0  0  0  0  0  0  0  0  0  0
   -0.5081   -0.9510    2.3548 C   0  0  0  0  0  0  0  0  0  0  0  0
   -1.7013   -0.2423    2.4112 C   0  0  0  0  0  0  0  0  0  0  0  0
   -2.5287   -0.3723    3.5096 C   0  0  0  0  0  0  0  0  0  0  0  0
   -2.1703   -1.2068    4.5521 C   0  0  0  0  0  0  0  0  0  0  0  0
   -3.0758   -1.3466    5.7486 C   0  0  1  0  0  0  0  0  0  0  0  0
   -4.2067   -0.5417    5.5741 F   0  0  0  0  0  0  0  0  0  0  0  0
   -3.4701   -2.6823    5.8815 F   0  0  0  0  0  0  0  0  0  0  0  0
   -2.3912   -0.9456    6.9009 F   0  0  0  0  0  0  0  0  0  0  0  0
   -0.9829   -1.9140    4.4991 C   0  0  0  0  0  0  0  0  0  0  0  0
   -0.1536   -1.7927    3.4017 C   0  0  0  0  0  0  0  0  0  0  0  0
    1.1169   -2.5498    3.3458 N   0  0  0  0  0  0  0  0  0  0  0  0
    1.5026   -3.0151    2.2883 O   0  0  0  0  0  0  0  0  0  0  0  0
    1.7768   -2.7077    4.3574 O   0  0  0  0  0  0  0  0  0  0  0  0
    0.6318   -0.3353   -1.1128 C   0  0  0  0  0  0  0  0  0  0  0  0
    1.6196   -1.0384   -1.0826 O   0  0  0  0  0  0  0  0  0  0  0  0
    0.1099    0.0430   -2.2964 N   0  0  0  0  0  0  0  0  0  0  0  0
   -1.0079    0.9956   -2.3507 C   0  0  1  0  0  0  0  0  0  0  0  0
   -0.6056    2.1726   -3.2480 C   0  0  1  0  0  0  0  0  0  0  0  0
   -0.0669    1.6403   -4.5074 N   0  0  0  0  0  0  0  0  0  0  0  0
   -0.7075    2.1060   -5.9618 S   0  0  1  0  0  0  0  0  0  0  0  0
   -0.3983    1.0718   -6.8860 O   0  0  0  0  0  0  0  0  0  0  0  0
   -2.0344    2.5391   -5.6955 O   0  0  0  0  0  0  0  0  0  0  0  0
    0.1838    3.5303   -6.4922 C   0  0  0  0  0  0  0  0  0  0  0  0
    1.2833    3.5123   -7.2473 C   0  0  0  0  0  0  0  0  0  0  0  0
    1.8109    4.7583   -7.5391 C   0  0  0  0  0  0  0  0  0  0  0  0
    1.1400    5.7882   -7.0209 C   0  0  0  0  0  0  0  0  0  0  0  0
   -0.2444    5.1936   -6.1135 S   0  0  0  0  0  0  0  0  0  0  0  0
    1.0509    0.6877   -4.4531 C   0  0  1  0  0  0  0  0  0  0  0  0
    0.6523   -0.4850   -3.5561 C   0  0  1  0  0  0  0  0  0  0  0  0
    1.5624    1.4651    0.7570 H   0  0  0  0  0  0  0  0  0  0  0  0
    0.3290    2.1886   -0.3029 H   0  0  0  0  0  0  0  0  0  0  0  0
   -0.0408    1.8787    1.4104 H   0  0  0  0  0  0  0  0  0  0  0  0
    1.1399   -1.3535    1.1850 H   0  0  0  0  0  0  0  0  0  0  0  0
   -1.9817    0.4100    1.5974 H   0  0  0  0  0  0  0  0  0  0  0  0
   -3.4564    0.1787    3.5543 H   0  0  0  0  0  0  0  0  0  0  0  0
   -0.7059   -2.5650    5.3151 H   0  0  0  0  0  0  0  0  0  0  0  0
   -1.8879    0.5037   -2.7652 H   0  0  0  0  0  0  0  0  0  0  0  0
   -1.2278    1.3592   -1.3470 H   0  0  0  0  0  0  0  0  0  0  0  0
   -1.4798    2.7896   -3.4558 H   0  0  0  0  0  0  0  0  0  0  0  0
    0.1564    2.7702   -2.7477 H   0  0  0  0  0  0  0  0  0  0  0  0
    1.7283    2.5950   -7.6037 H   0  0  0  0  0  0  0  0  0  0  0  0
    2.6988    4.8869   -8.1404 H   0  0  0  0  0  0  0  0  0  0  0  0
    1.4043    6.8282   -7.1430 H   0  0  0  0  0  0  0  0  0  0  0  0
    1.2708    0.3241   -5.4569 H   0  0  0  0  0  0  0  0  0  0  0  0
    1.9309    1.1796   -4.0386 H   0  0  0  0  0  0  0  0  0  0  0  0
    1.5273   -1.1012   -3.3491 H   0  0  0  0  0  0  0  0  0  0  0  0
   -0.1103   -1.0838   -4.0542 H   0  0  0  0  0  0  0  0  0  0  0  0
  1  2  1  0
  1 34  1  1
  1 35  1  0
  1 36  1  0
  2  3  1  6
  2  4  1  0
  2 18  1  0
  4  5  1  0
  4 37  1  0
  5 14  2  0
  5  6  1  0
  6  7  2  0
  6 38  1  0
  7  8  1  0
  7 39  1  0
  8  9  1  0
  8 13  2  0
  9 10  1  6
  9 11  1  0
  9 12  1  0
 13 14  1  0
 13 40  1  0
 14 15  1  0
 15 16  2  0
 15 17  2  0
 18 19  2  0
 18 20  1  0
 20 33  1  0
 20 21  1  0
 21 22  1  0
 21 41  1  6
 21 42  1  0
 22 23  1  0
 22 43  1  6
 22 44  1  0
 24 23  1  1
 23 32  1  0
 24 25  2  0
 24 26  2  0
 24 27  1  0
 27 31  1  0
 27 28  2  0
 28 29  1  0
 28 45  1  0
 29 30  2  0
 29 46  1  0
 30 31  1  0
 30 47  1  0
 32 33  1  0
 32 48  1  6
 32 49  1  0
 33 50  1  1
 33 51  1  0
M  END
$$$$
