ZINC000004838960
     RDKit          3D

 57 58  0  0  1  0  0  0  0  0999 V2000
   -0.0187    1.5258    0.0104 C   0  0  1  0  0  0  0  0  0  0  0  0
    0.0021   -0.0041    0.0020 C   0  0  1  0  0  0  0  0  0  0  0  0
    0.7182   -0.4975   -1.2568 C   0  0  2  0  0  0  0  0  0  0  0  0
    0.2444   -0.0644   -2.1377 H   0  0  0  0  0  0  0  0  0  0  0  0
    0.6303   -2.0233   -1.3286 C   0  0  1  0  0  0  0  0  0  0  0  0
    2.1249   -0.0911   -1.2094 N   0  0  0  0  0  0  0  0  0  0  0  0
    2.8241    0.0515   -2.3527 C   0  0  0  0  0  0  0  0  0  0  0  0
    2.2887   -0.1566   -3.4209 O   0  0  0  0  0  0  0  0  0  0  0  0
    4.2711    0.4696   -2.3039 C   0  0  1  0  0  0  0  0  0  0  0  0
    4.8016    0.5526   -3.6670 N   0  0  0  0  0  0  0  0  0  0  0  0
    4.6200    1.7771   -4.4504 C   0  0  1  0  0  0  0  0  0  0  0  0
    5.7185    2.7538   -4.1180 C   0  0  0  0  0  0  0  0  0  0  0  0
    5.5505    3.6582   -3.0862 C   0  0  0  0  0  0  0  0  0  0  0  0
    6.5581    4.5540   -2.7813 C   0  0  0  0  0  0  0  0  0  0  0  0
    7.7341    4.5451   -3.5080 C   0  0  0  0  0  0  0  0  0  0  0  0
    7.9025    3.6401   -4.5392 C   0  0  0  0  0  0  0  0  0  0  0  0
    6.8965    2.7414   -4.8413 C   0  0  0  0  0  0  0  0  0  0  0  0
    5.6067   -0.7377   -4.3221 S   0  0  1  0  0  0  0  0  0  0  0  0
    6.4435   -0.2121   -5.3433 O   0  0  0  0  0  0  0  0  0  0  0  0
    6.0998   -1.5001   -3.2290 O   0  0  0  0  0  0  0  0  0  0  0  0
    4.4078   -1.7447   -5.1304 C   0  0  0  0  0  0  0  0  0  0  0  0
    3.7699   -2.7523   -4.4319 C   0  0  0  0  0  0  0  0  0  0  0  0
    2.8286   -3.5456   -5.0619 C   0  0  0  0  0  0  0  0  0  0  0  0
    2.5229   -3.3309   -6.3958 C   0  0  0  0  0  0  0  0  0  0  0  0
    1.5971   -4.1099   -7.0167 O   0  0  0  0  0  0  0  0  0  0  0  0
    0.9782   -5.1319   -6.2327 C   0  0  1  0  0  0  0  0  0  0  0  0
    3.1650   -2.3158   -7.0991 C   0  0  0  0  0  0  0  0  0  0  0  0
    2.8680   -2.1009   -8.4087 O   0  0  0  0  0  0  0  0  0  0  0  0
    3.5661   -1.0419   -9.0669 C   0  0  1  0  0  0  0  0  0  0  0  0
    4.1032   -1.5214   -6.4607 C   0  0  0  0  0  0  0  0  0  0  0  0
    1.0039    1.9031    0.0027 H   0  0  0  0  0  0  0  0  0  0  0  0
   -0.5459    1.8868   -0.8726 H   0  0  0  0  0  0  0  0  0  0  0  0
   -0.5289    1.8773    0.9072 H   0  0  0  0  0  0  0  0  0  0  0  0
    0.5293   -0.3651    0.8851 H   0  0  0  0  0  0  0  0  0  0  0  0
   -1.0205   -0.3814    0.0098 H   0  0  0  0  0  0  0  0  0  0  0  0
    1.1041   -2.4564   -0.4477 H   0  0  0  0  0  0  0  0  0  0  0  0
   -0.4163   -2.3257   -1.3639 H   0  0  0  0  0  0  0  0  0  0  0  0
    1.1405   -2.3748   -2.2254 H   0  0  0  0  0  0  0  0  0  0  0  0
    2.5531    0.0754   -0.3551 H   0  0  0  0  0  0  0  0  0  0  0  0
    4.3517    1.4443   -1.8227 H   0  0  0  0  0  0  0  0  0  0  0  0
    4.8424   -0.2644   -1.7357 H   0  0  0  0  0  0  0  0  0  0  0  0
    4.6563    1.5373   -5.5131 H   0  0  0  0  0  0  0  0  0  0  0  0
    3.6540    2.2217   -4.2111 H   0  0  0  0  0  0  0  0  0  0  0  0
    4.6317    3.6651   -2.5185 H   0  0  0  0  0  0  0  0  0  0  0  0
    6.4265    5.2611   -1.9756 H   0  0  0  0  0  0  0  0  0  0  0  0
    8.5210    5.2455   -3.2702 H   0  0  0  0  0  0  0  0  0  0  0  0
    8.8211    3.6334   -5.1071 H   0  0  0  0  0  0  0  0  0  0  0  0
    7.0281    2.0343   -5.6470 H   0  0  0  0  0  0  0  0  0  0  0  0
    4.0073   -2.9207   -3.3919 H   0  0  0  0  0  0  0  0  0  0  0  0
    2.3320   -4.3328   -4.5140 H   0  0  0  0  0  0  0  0  0  0  0  0
    1.7401   -5.8192   -5.8649 H   0  0  0  0  0  0  0  0  0  0  0  0
    0.4600   -4.6781   -5.3879 H   0  0  0  0  0  0  0  0  0  0  0  0
    0.2624   -5.6779   -6.8472 H   0  0  0  0  0  0  0  0  0  0  0  0
    4.6375   -1.2402   -9.0384 H   0  0  0  0  0  0  0  0  0  0  0  0
    3.2358   -0.9783  -10.1037 H   0  0  0  0  0  0  0  0  0  0  0  0
    3.3574   -0.0994   -8.5607 H   0  0  0  0  0  0  0  0  0  0  0  0
    4.6029   -0.7331   -7.0041 H   0  0  0  0  0  0  0  0  0  0  0  0
  1  2  1  0
  1 31  1  6
  1 32  1  0
  1 33  1  0
  2  3  1  0
  2 34  1  1
  2 35  1  0
  3  4  1  6
  3  5  1  0
  3  6  1  0
  5 36  1  1
  5 37  1  0
  5 38  1  0
  6  7  1  0
  6 39  1  0
  7  8  2  0
  7  9  1  0
  9 10  1  0
  9 40  1  1
  9 41  1  0
 10 11  1  0
 18 10  1  1
 11 12  1  0
 11 42  1  6
 11 43  1  0
 12 17  2  0
 12 13  1  0
 13 14  2  0
 13 44  1  0
 14 15  1  0
 14 45  1  0
 15 16  2  0
 15 46  1  0
 16 17  1  0
 16 47  1  0
 17 48  1  0
 18 19  2  0
 18 20  2  0
 18 21  1  0
 21 30  2  0
 21 22  1  0
 22 23  2  0
 22 49  1  0
 23 24  1  0
 23 50  1  0
 24 25  1  0
 24 27  2  0
 25 26  1  0
 26 51  1  1
 26 52  1  0
 26 53  1  0
 27 28  1  0
 27 30  1  0
 28 29  1  0
 29 54  1  6
 29 55  1  0
 29 56  1  0
 30 57  1  0
M  END
$$$$
