ZINC000028207359
     RDKit          3D

 53 54  0  0  1  0  0  0  0  0999 V2000
   -0.0187    1.5258    0.0104 C   0  0  1  0  0  0  0  0  0  0  0  0
    0.0021   -0.0041    0.0020 C   0  0  1  0  0  0  0  0  0  0  0  0
    0.5123   -0.3556   -0.8948 H   0  0  0  0  0  0  0  0  0  0  0  0
    0.7421   -0.5109    1.2415 C   0  0  1  0  0  0  0  0  0  0  0  0
    0.8719   -2.0337    1.1708 C   0  0  1  0  0  0  0  0  0  0  0  0
    1.6008   -2.5330    2.3917 C   0  0  0  0  0  0  0  0  0  0  0  0
    2.9789   -2.6409    2.3781 C   0  0  0  0  0  0  0  0  0  0  0  0
    3.6475   -3.0988    3.4980 C   0  0  0  0  0  0  0  0  0  0  0  0
    2.9380   -3.4484    4.6317 C   0  0  0  0  0  0  0  0  0  0  0  0
    1.5600   -3.3396    4.6457 C   0  0  0  0  0  0  0  0  0  0  0  0
    0.8918   -2.8776    3.5272 C   0  0  0  0  0  0  0  0  0  0  0  0
   -1.3723   -0.5112    0.0124 N   0  0  0  0  0  0  0  0  0  0  0  0
   -2.0508   -0.6427   -1.1446 C   0  0  0  0  0  0  0  0  0  0  0  0
   -1.5236   -0.3413   -2.1944 O   0  0  0  0  0  0  0  0  0  0  0  0
   -3.4646   -1.1643   -1.1339 C   0  0  1  0  0  0  0  0  0  0  0  0
   -3.9650   -1.2118   -2.4716 O   0  0  0  0  0  0  0  0  0  0  0  0
   -5.2360   -1.6627   -2.6393 C   0  0  0  0  0  0  0  0  0  0  0  0
   -5.9882   -2.0459   -1.5384 C   0  0  0  0  0  0  0  0  0  0  0  0
   -7.2802   -2.5034   -1.7115 C   0  0  0  0  0  0  0  0  0  0  0  0
   -7.8235   -2.5799   -2.9806 C   0  0  0  0  0  0  0  0  0  0  0  0
   -9.4715   -3.1644   -3.1980 S   0  0  1  0  0  0  0  0  0  0  0  0
   -9.5532   -3.6475   -4.5319 O   0  0  0  0  0  0  0  0  0  0  0  0
   -9.7663   -3.9654   -2.0619 O   0  0  0  0  0  0  0  0  0  0  0  0
  -10.4733   -1.8484   -3.1150 N   0  0  0  0  0  0  0  0  0  0  0  0
  -10.8083   -1.1049   -4.3321 C   0  0  1  0  0  0  0  0  0  0  0  0
  -11.0246   -1.4277   -1.8245 C   0  0  1  0  0  0  0  0  0  0  0  0
   -7.0761   -2.1981   -4.0794 C   0  0  0  0  0  0  0  0  0  0  0  0
   -5.7855   -1.7350   -3.9111 C   0  0  0  0  0  0  0  0  0  0  0  0
    1.0039    1.9031    0.0027 H   0  0  0  0  0  0  0  0  0  0  0  0
   -0.5459    1.8868   -0.8726 H   0  0  0  0  0  0  0  0  0  0  0  0
   -0.5289    1.8773    0.9072 H   0  0  0  0  0  0  0  0  0  0  0  0
    1.7350   -0.0630    1.2804 H   0  0  0  0  0  0  0  0  0  0  0  0
    0.1838   -0.2350    2.1361 H   0  0  0  0  0  0  0  0  0  0  0  0
   -0.1210   -2.4817    1.1320 H   0  0  0  0  0  0  0  0  0  0  0  0
    1.4302   -2.3096    0.2763 H   0  0  0  0  0  0  0  0  0  0  0  0
    3.5331   -2.3677    1.4923 H   0  0  0  0  0  0  0  0  0  0  0  0
    4.7241   -3.1838    3.4870 H   0  0  0  0  0  0  0  0  0  0  0  0
    3.4603   -3.8068    5.5064 H   0  0  0  0  0  0  0  0  0  0  0  0
    1.0057   -3.6130    5.5313 H   0  0  0  0  0  0  0  0  0  0  0  0
   -0.1848   -2.7926    3.5382 H   0  0  0  0  0  0  0  0  0  0  0  0
   -1.7940   -0.7522    0.8520 H   0  0  0  0  0  0  0  0  0  0  0  0
   -3.4790   -2.1662   -0.7048 H   0  0  0  0  0  0  0  0  0  0  0  0
   -4.0912   -0.5035   -0.5349 H   0  0  0  0  0  0  0  0  0  0  0  0
   -5.5640   -1.9870   -0.5470 H   0  0  0  0  0  0  0  0  0  0  0  0
   -7.8662   -2.8019   -0.8548 H   0  0  0  0  0  0  0  0  0  0  0  0
  -11.7050   -1.5305   -4.7826 H   0  0  0  0  0  0  0  0  0  0  0  0
  -10.9888   -0.0597   -4.0812 H   0  0  0  0  0  0  0  0  0  0  0  0
   -9.9804   -1.1714   -5.0379 H   0  0  0  0  0  0  0  0  0  0  0  0
  -10.3477   -0.7134   -1.3558 H   0  0  0  0  0  0  0  0  0  0  0  0
  -11.9964   -0.9593   -1.9799 H   0  0  0  0  0  0  0  0  0  0  0  0
  -11.1398   -2.2975   -1.1777 H   0  0  0  0  0  0  0  0  0  0  0  0
   -7.5029   -2.2585   -5.0696 H   0  0  0  0  0  0  0  0  0  0  0  0
   -5.2020   -1.4369   -4.7697 H   0  0  0  0  0  0  0  0  0  0  0  0
  1  2  1  0
  1 29  1  6
  1 30  1  0
  1 31  1  0
  2  3  1  6
  2  4  1  0
  2 12  1  0
  4  5  1  0
  4 32  1  1
  4 33  1  0
  5  6  1  0
  5 34  1  6
  5 35  1  0
  6 11  2  0
  6  7  1  0
  7  8  2  0
  7 36  1  0
  8  9  1  0
  8 37  1  0
  9 10  2  0
  9 38  1  0
 10 11  1  0
 10 39  1  0
 11 40  1  0
 12 13  1  0
 12 41  1  0
 13 14  2  0
 13 15  1  0
 15 16  1  0
 15 42  1  1
 15 43  1  0
 16 17  1  0
 17 28  2  0
 17 18  1  0
 18 19  2  0
 18 44  1  0
 19 20  1  0
 19 45  1  0
 20 21  1  0
 20 27  2  0
 21 22  2  0
 21 23  2  0
 21 24  1  6
 24 25  1  0
 24 26  1  0
 25 46  1  6
 25 47  1  0
 25 48  1  0
 26 49  1  1
 26 50  1  0
 26 51  1  0
 27 28  1  0
 27 52  1  0
 28 53  1  0
M  END
$$$$
