ZINC000012982526
     RDKit          3D

 48 50  0  0  1  0  0  0  0  0999 V2000
   -0.0197    1.4388   -0.0325 C   0  0  1  0  0  0  0  0  0  0  0  0
    0.0030    0.0100   -0.0400 O   0  0  0  0  0  0  0  0  0  0  0  0
   -1.1978   -0.6261   -0.0234 C   0  0  0  0  0  0  0  0  0  0  0  0
   -2.3738    0.1097   -0.0061 C   0  0  0  0  0  0  0  0  0  0  0  0
   -3.5932   -0.5393    0.0102 C   0  0  0  0  0  0  0  0  0  0  0  0
   -3.6422   -1.9211    0.0098 C   0  0  0  0  0  0  0  0  0  0  0  0
   -5.1991   -2.7459    0.0313 S   0  0  1  0  0  0  0  0  0  0  0  0
   -4.9610   -4.0385    0.5714 O   0  0  0  0  0  0  0  0  0  0  0  0
   -6.1308   -1.8298    0.5898 O   0  0  0  0  0  0  0  0  0  0  0  0
   -5.6547   -2.9742   -1.5443 N   0  0  0  0  0  0  0  0  0  0  0  0
   -6.4464   -2.0311   -2.3550 C   0  0  1  0  0  0  0  0  0  0  0  0
   -6.0794   -2.3647   -3.8226 C   0  0  1  0  0  0  0  0  0  0  0  0
   -5.9408   -3.9090   -3.7657 C   0  0  1  0  0  0  0  0  0  0  0  0
   -5.3312   -4.1480   -2.3684 C   0  0  2  0  0  0  0  0  0  0  0  0
   -4.2504   -4.2632   -2.4502 H   0  0  0  0  0  0  0  0  0  0  0  0
   -5.9330   -5.3842   -1.7514 C   0  0  0  0  0  0  0  0  0  0  0  0
   -6.5584   -5.3020   -0.7154 O   0  0  0  0  0  0  0  0  0  0  0  0
   -5.7761   -6.5812   -2.3507 N   0  0  0  0  0  0  0  0  0  0  0  0
   -6.2506   -7.7420   -1.7299 C   0  0  0  0  0  0  0  0  0  0  0  0
   -5.5504   -8.9345   -1.8563 C   0  0  0  0  0  0  0  0  0  0  0  0
   -6.0213  -10.0785   -1.2423 C   0  0  0  0  0  0  0  0  0  0  0  0
   -7.1890  -10.0374   -0.5027 C   0  0  0  0  0  0  0  0  0  0  0  0
   -7.7003  -11.2877    0.1654 C   0  0  1  0  0  0  0  0  0  0  0  0
   -7.1631  -11.3809    1.4538 F   0  0  0  0  0  0  0  0  0  0  0  0
   -9.0961  -11.2366    0.2447 F   0  0  0  0  0  0  0  0  0  0  0  0
   -7.3163  -12.4062   -0.5820 F   0  0  0  0  0  0  0  0  0  0  0  0
   -7.8884   -8.8514   -0.3746 C   0  0  0  0  0  0  0  0  0  0  0  0
   -7.4196   -7.7026   -0.9813 C   0  0  0  0  0  0  0  0  0  0  0  0
   -2.4716   -2.6568   -0.0078 C   0  0  0  0  0  0  0  0  0  0  0  0
   -1.2498   -2.0125   -0.0295 C   0  0  0  0  0  0  0  0  0  0  0  0
    1.0020    1.8185   -0.0474 H   0  0  0  0  0  0  0  0  0  0  0  0
   -0.5538    1.7984   -0.9120 H   0  0  0  0  0  0  0  0  0  0  0  0
   -0.5245    1.7895    0.8677 H   0  0  0  0  0  0  0  0  0  0  0  0
   -2.3360    1.1890   -0.0051 H   0  0  0  0  0  0  0  0  0  0  0  0
   -4.5089    0.0330    0.0237 H   0  0  0  0  0  0  0  0  0  0  0  0
   -7.5118   -2.1869   -2.1857 H   0  0  0  0  0  0  0  0  0  0  0  0
   -6.1702   -1.0034   -2.1191 H   0  0  0  0  0  0  0  0  0  0  0  0
   -6.8786   -2.0689   -4.5021 H   0  0  0  0  0  0  0  0  0  0  0  0
   -5.1358   -1.8979   -4.1051 H   0  0  0  0  0  0  0  0  0  0  0  0
   -6.9165   -4.3871   -3.8518 H   0  0  0  0  0  0  0  0  0  0  0  0
   -5.2659   -4.2645   -4.5443 H   0  0  0  0  0  0  0  0  0  0  0  0
   -5.3344   -6.6380   -3.2124 H   0  0  0  0  0  0  0  0  0  0  0  0
   -4.6387   -8.9675   -2.4343 H   0  0  0  0  0  0  0  0  0  0  0  0
   -5.4772  -11.0063   -1.3402 H   0  0  0  0  0  0  0  0  0  0  0  0
   -8.8000   -8.8225    0.2037 H   0  0  0  0  0  0  0  0  0  0  0  0
   -7.9663   -6.7766   -0.8809 H   0  0  0  0  0  0  0  0  0  0  0  0
   -2.5126   -3.7360   -0.0084 H   0  0  0  0  0  0  0  0  0  0  0  0
   -0.3358   -2.5875   -0.0433 H   0  0  0  0  0  0  0  0  0  0  0  0
  1  2  1  0
  1 31  1  6
  1 32  1  0
  1 33  1  0
  2  3  1  0
  3 30  2  0
  3  4  1  0
  4  5  2  0
  4 34  1  0
  5  6  1  0
  5 35  1  0
  6  7  1  0
  6 29  2  0
  7  8  2  0
  7  9  2  0
  7 10  1  6
 10 14  1  0
 10 11  1  0
 11 12  1  0
 11 36  1  6
 11 37  1  0
 12 13  1  0
 12 38  1  6
 12 39  1  0
 13 14  1  0
 13 40  1  1
 13 41  1  0
 14 15  1  6
 14 16  1  0
 16 17  2  0
 16 18  1  0
 18 19  1  0
 18 42  1  0
 19 28  2  0
 19 20  1  0
 20 21  2  0
 20 43  1  0
 21 22  1  0
 21 44  1  0
 22 23  1  0
 22 27  2  0
 23 24  1  1
 23 25  1  0
 23 26  1  0
 27 28  1  0
 27 45  1  0
 28 46  1  0
 29 30  1  0
 29 47  1  0
 30 48  1  0
M  END
$$$$
