ZINC000031625402
     RDKit          3D

 39 40  0  0  1  0  0  0  0  0999 V2000
   -0.0162    1.3436    0.0094 N   0  0  0  0  0  0  0  0  0  0  0  0
    0.0021   -0.0041    0.0020 C   0  0  0  0  0  0  0  0  0  0  0  0
    1.0605   -0.5961   -0.0113 O   0  0  0  0  0  0  0  0  0  0  0  0
   -1.2926   -0.7753    0.0102 C   0  0  2  0  0  0  0  0  0  0  0  0
   -1.8596   -0.5248    0.9069 H   0  0  0  0  0  0  0  0  0  0  0  0
   -0.9933   -2.2760   -0.0023 C   0  0  1  0  0  0  0  0  0  0  0  0
   -2.3069   -3.0603    0.0392 C   0  0  1  0  0  0  0  0  0  0  0  0
   -3.1380   -2.7226   -1.2026 C   0  0  1  0  0  0  0  0  0  0  0  0
   -3.3075   -1.2650   -1.2762 N   0  0  0  0  0  0  0  0  0  0  0  0
   -4.5360   -0.7211   -1.3824 C   0  0  0  0  0  0  0  0  0  0  0  0
   -4.6627    0.4836   -1.4423 O   0  0  0  0  0  0  0  0  0  0  0  0
   -5.7523   -1.6097   -1.4266 C   0  0  1  0  0  0  0  0  0  0  0  0
   -6.9566   -0.7837   -1.5431 N   0  0  0  0  0  0  0  0  0  0  0  0
   -7.5846   -0.3506   -0.4201 C   0  0  0  0  0  0  0  0  0  0  0  0
   -8.6989    0.4132   -0.5024 C   0  0  0  0  0  0  0  0  0  0  0  0
   -9.3837    0.8856    0.7542 C   0  0  1  0  0  0  0  0  0  0  0  0
   -8.9318    2.1697    1.0770 F   0  0  0  0  0  0  0  0  0  0  0  0
  -10.7671    0.9163    0.5479 F   0  0  0  0  0  0  0  0  0  0  0  0
   -9.0881    0.0095    1.8040 F   0  0  0  0  0  0  0  0  0  0  0  0
   -9.2153    0.7648   -1.7574 C   0  0  0  0  0  0  0  0  0  0  0  0
   -8.5828    0.3291   -2.8846 C   0  0  0  0  0  0  0  0  0  0  0  0
   -7.4250   -0.4582   -2.7629 C   0  0  0  0  0  0  0  0  0  0  0  0
   -6.8491   -0.8548   -3.7634 O   0  0  0  0  0  0  0  0  0  0  0  0
   -2.1126   -0.4111   -1.2315 C   0  0  1  0  0  0  0  0  0  0  0  0
    0.8172    1.8399    0.0041 H   0  0  0  0  0  0  0  0  0  0  0  0
   -0.8627    1.8171    0.0160 H   0  0  0  0  0  0  0  0  0  0  0  0
   -0.4474   -2.5299   -0.9109 H   0  0  0  0  0  0  0  0  0  0  0  0
   -0.3893   -2.5332    0.8678 H   0  0  0  0  0  0  0  0  0  0  0  0
   -2.0923   -4.1288    0.0538 H   0  0  0  0  0  0  0  0  0  0  0  0
   -2.8647   -2.7884    0.9353 H   0  0  0  0  0  0  0  0  0  0  0  0
   -2.6215   -3.0759   -2.0951 H   0  0  0  0  0  0  0  0  0  0  0  0
   -4.1147   -3.2008   -1.1297 H   0  0  0  0  0  0  0  0  0  0  0  0
   -5.6842   -2.2762   -2.2864 H   0  0  0  0  0  0  0  0  0  0  0  0
   -5.8040   -2.2006   -0.5121 H   0  0  0  0  0  0  0  0  0  0  0  0
   -7.1909   -0.6186    0.5492 H   0  0  0  0  0  0  0  0  0  0  0  0
  -10.1043    1.3737   -1.8309 H   0  0  0  0  0  0  0  0  0  0  0  0
   -8.9654    0.5896   -3.8603 H   0  0  0  0  0  0  0  0  0  0  0  0
   -2.4131    0.6353   -1.1780 H   0  0  0  0  0  0  0  0  0  0  0  0
   -1.5121   -0.5757   -2.1261 H   0  0  0  0  0  0  0  0  0  0  0  0
  1  2  1  0
  1 25  1  0
  1 26  1  0
  2  3  2  0
  2  4  1  0
  4  5  1  1
  4 24  1  0
  4  6  1  0
  6  7  1  0
  6 27  1  6
  6 28  1  0
  7  8  1  0
  7 29  1  1
  7 30  1  0
  8  9  1  0
  8 31  1  6
  8 32  1  0
  9 10  1  0
  9 24  1  0
 10 11  2  0
 10 12  1  0
 12 13  1  0
 12 33  1  6
 12 34  1  0
 13 22  1  0
 13 14  1  0
 14 15  2  0
 14 35  1  0
 15 16  1  0
 15 20  1  0
 16 17  1  1
 16 18  1  0
 16 19  1  0
 20 21  2  0
 20 36  1  0
 21 22  1  0
 21 37  1  0
 22 23  2  0
 24 38  1  1
 24 39  1  0
M  END
$$$$
