ZINC000089904837
     RDKit          3D

 51 53  0  0  1  0  0  0  0  0999 V2000
    0.4171    3.5964   -4.4629 C   0  0  1  0  0  0  0  0  0  0  0  0
    0.2633    2.5145   -3.5421 O   0  0  0  0  0  0  0  0  0  0  0  0
    0.8374    1.3301   -3.8803 C   0  0  0  0  0  0  0  0  0  0  0  0
    1.5394    1.2132   -5.0712 C   0  0  0  0  0  0  0  0  0  0  0  0
    2.1225    0.0083   -5.4125 C   0  0  0  0  0  0  0  0  0  0  0  0
    2.0066   -1.0808   -4.5686 C   0  0  0  0  0  0  0  0  0  0  0  0
    2.6433   -2.3942   -4.9436 C   0  0  2  0  0  0  0  0  0  0  0  0
    4.0706   -2.4442   -4.3949 C   0  0  1  0  0  0  0  0  0  0  0  0
    2.6755   -2.5187   -6.3668 O   0  0  0  0  0  0  0  0  0  0  0  0
    1.8279   -3.5444   -4.3494 C   0  0  1  0  0  0  0  0  0  0  0  0
    1.8652   -3.5013   -3.2609 H   0  0  0  0  0  0  0  0  0  0  0  0
    0.3638   -3.4521   -4.8284 C   0  0  1  0  0  0  0  0  0  0  0  0
   -0.0212   -4.9375   -5.0577 C   0  0  1  0  0  0  0  0  0  0  0  0
    1.3106   -5.5258   -5.5869 C   0  0  1  0  0  0  0  0  0  0  0  0
    2.3634   -4.8311   -4.8176 N   0  0  0  0  0  0  0  0  0  0  0  0
    3.8906   -5.4057   -4.5352 S   0  0  1  0  0  0  0  0  0  0  0  0
    4.5204   -5.5120   -5.8046 O   0  0  0  0  0  0  0  0  0  0  0  0
    4.4196   -4.6314   -3.4675 O   0  0  0  0  0  0  0  0  0  0  0  0
    3.7245   -7.0495   -3.9229 C   0  0  0  0  0  0  0  0  0  0  0  0
    3.4798   -7.2653   -2.5797 C   0  0  0  0  0  0  0  0  0  0  0  0
    3.3495   -8.5550   -2.0993 C   0  0  0  0  0  0  0  0  0  0  0  0
    3.4634   -9.6288   -2.9624 C   0  0  0  0  0  0  0  0  0  0  0  0
    3.3218  -11.0347   -2.4386 C   0  0  1  0  0  0  0  0  0  0  0  0
    1.9797  -11.4241   -2.5048 F   0  0  0  0  0  0  0  0  0  0  0  0
    4.0978  -11.9020   -3.2151 F   0  0  0  0  0  0  0  0  0  0  0  0
    3.7565  -11.0833   -1.1098 F   0  0  0  0  0  0  0  0  0  0  0  0
    3.7068   -9.4129   -4.3059 C   0  0  0  0  0  0  0  0  0  0  0  0
    3.8333   -8.1231   -4.7869 C   0  0  0  0  0  0  0  0  0  0  0  0
    1.3079   -0.9668   -3.3809 C   0  0  0  0  0  0  0  0  0  0  0  0
    0.7274    0.2374   -3.0326 C   0  0  0  0  0  0  0  0  0  0  0  0
    1.4772    3.8123   -4.5960 H   0  0  0  0  0  0  0  0  0  0  0  0
   -0.0211    3.3220   -5.4224 H   0  0  0  0  0  0  0  0  0  0  0  0
   -0.0874    4.4803   -4.0726 H   0  0  0  0  0  0  0  0  0  0  0  0
    1.6297    2.0634   -5.7310 H   0  0  0  0  0  0  0  0  0  0  0  0
    2.6691   -0.0832   -6.3395 H   0  0  0  0  0  0  0  0  0  0  0  0
    4.0406   -2.6212   -3.3198 H   0  0  0  0  0  0  0  0  0  0  0  0
    4.6187   -3.2514   -4.8809 H   0  0  0  0  0  0  0  0  0  0  0  0
    4.5695   -1.4955   -4.5931 H   0  0  0  0  0  0  0  0  0  0  0  0
    1.8090   -2.4375   -6.7885 H   0  0  0  0  0  0  0  0  0  0  0  0
   -0.2661   -3.0047   -4.0594 H   0  0  0  0  0  0  0  0  0  0  0  0
    0.2973   -2.8884   -5.7589 H   0  0  0  0  0  0  0  0  0  0  0  0
   -0.3143   -5.4140   -4.1222 H   0  0  0  0  0  0  0  0  0  0  0  0
   -0.8110   -5.0258   -5.8036 H   0  0  0  0  0  0  0  0  0  0  0  0
    1.3520   -6.5989   -5.4004 H   0  0  0  0  0  0  0  0  0  0  0  0
    1.4193   -5.3205   -6.6519 H   0  0  0  0  0  0  0  0  0  0  0  0
    3.3908   -6.4264   -1.9054 H   0  0  0  0  0  0  0  0  0  0  0  0
    3.1590   -8.7236   -1.0497 H   0  0  0  0  0  0  0  0  0  0  0  0
    3.7954  -10.2518   -4.9802 H   0  0  0  0  0  0  0  0  0  0  0  0
    4.0234   -7.9545   -5.8366 H   0  0  0  0  0  0  0  0  0  0  0  0
    1.2190   -1.8188   -2.7233 H   0  0  0  0  0  0  0  0  0  0  0  0
    0.1817    0.3260   -2.1048 H   0  0  0  0  0  0  0  0  0  0  0  0
  1  2  1  0
  1 31  1  6
  1 32  1  0
  1 33  1  0
  2  3  1  0
  3 30  2  0
  3  4  1  0
  4  5  2  0
  4 34  1  0
  5  6  1  0
  5 35  1  0
  6 29  2  0
  7  6  1  0
  7  8  1  0
  7  9  1  6
  7 10  1  0
  8 36  1  1
  8 37  1  0
  8 38  1  0
  9 39  1  0
 10 11  1  1
 10 15  1  0
 10 12  1  0
 12 13  1  0
 12 40  1  1
 12 41  1  0
 13 14  1  0
 13 42  1  1
 13 43  1  0
 14 15  1  0
 14 44  1  6
 14 45  1  0
 16 15  1  6
 16 17  2  0
 16 18  2  0
 16 19  1  0
 19 28  2  0
 19 20  1  0
 20 21  2  0
 20 46  1  0
 21 22  1  0
 21 47  1  0
 22 23  1  0
 22 27  2  0
 23 24  1  1
 23 25  1  0
 23 26  1  0
 27 28  1  0
 27 48  1  0
 28 49  1  0
 29 30  1  0
 29 50  1  0
 30 51  1  0
M  END
$$$$
