ZINC000020021229
     RDKit          3D

 58 59  0  0  0  0  0  0  0  0999 V2000
   -0.0187    1.5258    0.0104 C   0  0  1  0  0  0  0  0  0  0  0  0
    0.0021   -0.0041    0.0020 C   0  0  1  0  0  0  0  0  0  0  0  0
   -1.3723   -0.5112    0.0124 N   0  0  0  0  0  0  0  0  0  0  0  0
   -2.1099   -0.6542   -1.2453 C   0  0  1  0  0  0  0  0  0  0  0  0
   -1.7727   -2.0031   -1.8836 C   0  0  1  0  0  0  0  0  0  0  0  0
   -2.0922   -0.9227    1.4458 S   0  0  1  0  0  0  0  0  0  0  0  0
   -3.1196   -1.8512    1.1269 O   0  0  0  0  0  0  0  0  0  0  0  0
   -1.0393   -1.2108    2.3555 O   0  0  0  0  0  0  0  0  0  0  0  0
   -2.8978    0.5199    2.0580 C   0  0  0  0  0  0  0  0  0  0  0  0
   -2.2144    1.3948    2.8821 C   0  0  0  0  0  0  0  0  0  0  0  0
   -2.8437    2.5265    3.3633 C   0  0  0  0  0  0  0  0  0  0  0  0
   -4.1624    2.7850    3.0187 C   0  0  0  0  0  0  0  0  0  0  0  0
   -4.7836    3.8979    3.4905 O   0  0  0  0  0  0  0  0  0  0  0  0
   -6.1417    4.0999    3.0945 C   0  0  1  0  0  0  0  0  0  0  0  0
   -6.6600    5.3744    3.7095 C   0  0  0  0  0  0  0  0  0  0  0  0
   -5.9375    6.0437    4.4172 O   0  0  0  0  0  0  0  0  0  0  0  0
   -7.9264    5.7703    3.4731 N   0  0  0  0  0  0  0  0  0  0  0  0
   -8.4302    7.0092    4.0709 C   0  0  1  0  0  0  0  0  0  0  0  0
   -9.8625    7.2223    3.6533 C   0  0  0  0  0  0  0  0  0  0  0  0
  -10.1466    7.9287    2.4999 C   0  0  0  0  0  0  0  0  0  0  0  0
  -11.4592    8.1273    2.1127 C   0  0  0  0  0  0  0  0  0  0  0  0
  -12.4927    7.6173    2.8812 C   0  0  0  0  0  0  0  0  0  0  0  0
  -13.7841    7.8114    2.5016 O   0  0  0  0  0  0  0  0  0  0  0  0
  -14.0025    8.5508    1.2985 C   0  0  1  0  0  0  0  0  0  0  0  0
  -12.2065    6.9055    4.0427 C   0  0  0  0  0  0  0  0  0  0  0  0
  -13.2177    6.4025    4.8002 O   0  0  0  0  0  0  0  0  0  0  0  0
  -12.8494    5.6828    5.9785 C   0  0  1  0  0  0  0  0  0  0  0  0
  -10.8893    6.7057    4.4221 C   0  0  0  0  0  0  0  0  0  0  0  0
   -4.8459    1.9058    2.1913 C   0  0  0  0  0  0  0  0  0  0  0  0
   -4.2105    0.7780    1.7088 C   0  0  0  0  0  0  0  0  0  0  0  0
    1.0039    1.9031    0.0027 H   0  0  0  0  0  0  0  0  0  0  0  0
   -0.5459    1.8868   -0.8726 H   0  0  0  0  0  0  0  0  0  0  0  0
   -0.5289    1.8773    0.9072 H   0  0  0  0  0  0  0  0  0  0  0  0
    0.5123   -0.3556   -0.8948 H   0  0  0  0  0  0  0  0  0  0  0  0
    0.5293   -0.3651    0.8851 H   0  0  0  0  0  0  0  0  0  0  0  0
   -3.1804   -0.6037   -1.0465 H   0  0  0  0  0  0  0  0  0  0  0  0
   -1.8283    0.1500   -1.9251 H   0  0  0  0  0  0  0  0  0  0  0  0
   -0.7022   -2.0536   -2.0825 H   0  0  0  0  0  0  0  0  0  0  0  0
   -2.0544   -2.8073   -1.2038 H   0  0  0  0  0  0  0  0  0  0  0  0
   -2.3215   -2.1096   -2.8194 H   0  0  0  0  0  0  0  0  0  0  0  0
   -1.1877    1.1931    3.1500 H   0  0  0  0  0  0  0  0  0  0  0  0
   -2.3096    3.2093    4.0075 H   0  0  0  0  0  0  0  0  0  0  0  0
   -6.1966    4.1721    2.0083 H   0  0  0  0  0  0  0  0  0  0  0  0
   -6.7479    3.2600    3.4339 H   0  0  0  0  0  0  0  0  0  0  0  0
   -8.5043    5.2349    2.9071 H   0  0  0  0  0  0  0  0  0  0  0  0
   -8.3753    6.9370    5.1571 H   0  0  0  0  0  0  0  0  0  0  0  0
   -7.8240    7.8491    3.7315 H   0  0  0  0  0  0  0  0  0  0  0  0
   -9.3417    8.3268    1.8998 H   0  0  0  0  0  0  0  0  0  0  0  0
  -11.6785    8.6803    1.2113 H   0  0  0  0  0  0  0  0  0  0  0  0
  -15.0733    8.6324    1.1115 H   0  0  0  0  0  0  0  0  0  0  0  0
  -13.5747    9.5480    1.4021 H   0  0  0  0  0  0  0  0  0  0  0  0
  -13.5262    8.0360    0.4641 H   0  0  0  0  0  0  0  0  0  0  0  0
  -12.2351    4.8254    5.7035 H   0  0  0  0  0  0  0  0  0  0  0  0
  -12.2839    6.3370    6.6420 H   0  0  0  0  0  0  0  0  0  0  0  0
  -13.7483    5.3369    6.4889 H   0  0  0  0  0  0  0  0  0  0  0  0
  -10.6646    6.1537    5.3227 H   0  0  0  0  0  0  0  0  0  0  0  0
   -5.8726    2.1046    1.9219 H   0  0  0  0  0  0  0  0  0  0  0  0
   -4.7420    0.0934    1.0644 H   0  0  0  0  0  0  0  0  0  0  0  0
  1  2  1  0
  1 31  1  6
  1 32  1  0
  1 33  1  0
  2  3  1  0
  2 34  1  6
  2 35  1  0
  3  4  1  0
  6  3  1  6
  4  5  1  0
  4 36  1  1
  4 37  1  0
  5 38  1  6
  5 39  1  0
  5 40  1  0
  6  7  2  0
  6  8  2  0
  6  9  1  0
  9 30  2  0
  9 10  1  0
 10 11  2  0
 10 41  1  0
 11 12  1  0
 11 42  1  0
 12 13  1  0
 12 29  2  0
 13 14  1  0
 14 15  1  0
 14 43  1  6
 14 44  1  0
 15 16  2  0
 15 17  1  0
 17 18  1  0
 17 45  1  0
 18 19  1  0
 18 46  1  1
 18 47  1  0
 19 28  2  0
 19 20  1  0
 20 21  2  0
 20 48  1  0
 21 22  1  0
 21 49  1  0
 22 23  1  0
 22 25  2  0
 23 24  1  0
 24 50  1  6
 24 51  1  0
 24 52  1  0
 25 26  1  0
 25 28  1  0
 26 27  1  0
 27 53  1  6
 27 54  1  0
 27 55  1  0
 28 56  1  0
 29 30  1  0
 29 57  1  0
 30 58  1  0
M  END
$$$$
