ZINC000067338665
     RDKit          3D

 43 44  0  0  1  0  0  0  0  0999 V2000
    0.8287    0.6540    0.7349 C   0  0  1  0  0  0  0  0  0  0  0  0
    0.1298   -0.6013    0.2091 C   0  0  2  0  0  0  0  0  0  0  0  0
   -0.9478   -0.4968    0.3348 H   0  0  0  0  0  0  0  0  0  0  0  0
    0.6111   -1.8040    0.9790 C   0  0  0  0  0  0  0  0  0  0  0  0
    1.4175   -2.5604    0.4804 O   0  0  0  0  0  0  0  0  0  0  0  0
    0.1456   -2.0391    2.2218 N   0  0  0  0  0  0  0  0  0  0  0  0
   -0.7605   -1.1620    2.9775 C   0  0  1  0  0  0  0  0  0  0  0  0
   -0.9973   -1.8227    4.3519 C   0  0  1  0  0  0  0  0  0  0  0  0
    0.2357   -2.7516    4.5080 C   0  0  1  0  0  0  0  0  0  0  0  0
    0.4554   -3.2216    3.0460 C   0  0  1  0  0  0  0  0  0  0  0  0
    0.4411   -0.7746   -1.2120 N   0  0  0  0  0  0  0  0  0  0  0  0
    1.7714   -0.8095   -1.6363 C   0  0  0  0  0  0  0  0  0  0  0  0
    2.3796   -2.0254   -1.9205 C   0  0  0  0  0  0  0  0  0  0  0  0
    3.6951   -2.0564   -2.3404 C   0  0  0  0  0  0  0  0  0  0  0  0
    4.4065   -0.8787   -2.4777 C   0  0  0  0  0  0  0  0  0  0  0  0
    3.8041    0.3337   -2.1950 C   0  0  0  0  0  0  0  0  0  0  0  0
    4.5833    1.6147   -2.3462 C   0  0  1  0  0  0  0  0  0  0  0  0
    5.8808    1.3228   -2.7804 F   0  0  0  0  0  0  0  0  0  0  0  0
    3.9513    2.4370   -3.2851 F   0  0  0  0  0  0  0  0  0  0  0  0
    4.6413    2.2735   -1.1134 F   0  0  0  0  0  0  0  0  0  0  0  0
    2.4875    0.3723   -1.7804 C   0  0  0  0  0  0  0  0  0  0  0  0
   -0.7842   -0.9290   -2.3152 S   0  0  1  0  0  0  0  0  0  0  0  0
   -1.0667    0.7588   -2.9171 C   0  0  1  0  0  0  0  0  0  0  0  0
   -0.2302   -1.7388   -3.3431 O   0  0  0  0  0  0  0  0  0  0  0  0
   -1.8928   -1.3766   -1.5472 O   0  0  0  0  0  0  0  0  0  0  0  0
    1.9031    0.5666    0.5728 H   0  0  0  0  0  0  0  0  0  0  0  0
    0.4514    1.5288    0.2053 H   0  0  0  0  0  0  0  0  0  0  0  0
    0.6297    0.7610    1.8012 H   0  0  0  0  0  0  0  0  0  0  0  0
   -0.3019   -0.1822    3.1113 H   0  0  0  0  0  0  0  0  0  0  0  0
   -1.7071   -1.0611    2.4467 H   0  0  0  0  0  0  0  0  0  0  0  0
   -1.0173   -1.0724    5.1423 H   0  0  0  0  0  0  0  0  0  0  0  0
   -1.9195   -2.4036    4.3468 H   0  0  0  0  0  0  0  0  0  0  0  0
    1.0983   -2.1971    4.8774 H   0  0  0  0  0  0  0  0  0  0  0  0
    0.0086   -3.5965    5.1581 H   0  0  0  0  0  0  0  0  0  0  0  0
   -0.2183   -4.0444    2.8067 H   0  0  0  0  0  0  0  0  0  0  0  0
    1.4921   -3.5231    2.8962 H   0  0  0  0  0  0  0  0  0  0  0  0
    1.8246   -2.9457   -1.8131 H   0  0  0  0  0  0  0  0  0  0  0  0
    4.1687   -3.0015   -2.5613 H   0  0  0  0  0  0  0  0  0  0  0  0
    5.4350   -0.9058   -2.8062 H   0  0  0  0  0  0  0  0  0  0  0  0
    2.0177    1.3194   -1.5598 H   0  0  0  0  0  0  0  0  0  0  0  0
   -0.1199    1.1933   -3.2381 H   0  0  0  0  0  0  0  0  0  0  0  0
   -1.7587    0.7333   -3.7588 H   0  0  0  0  0  0  0  0  0  0  0  0
   -1.4911    1.3640   -2.1160 H   0  0  0  0  0  0  0  0  0  0  0  0
  1  2  1  0
  1 26  1  1
  1 27  1  0
  1 28  1  0
  2  3  1  6
  2  4  1  0
  2 11  1  0
  4  5  2  0
  4  6  1  0
  6 10  1  0
  6  7  1  0
  7  8  1  0
  7 29  1  1
  7 30  1  0
  8  9  1  0
  8 31  1  1
  8 32  1  0
  9 10  1  0
  9 33  1  1
  9 34  1  0
 10 35  1  6
 10 36  1  0
 11 12  1  0
 22 11  1  1
 12 21  2  0
 12 13  1  0
 13 14  2  0
 13 37  1  0
 14 15  1  0
 14 38  1  0
 15 16  2  0
 15 39  1  0
 16 17  1  0
 16 21  1  0
 17 18  1  6
 17 19  1  0
 17 20  1  0
 21 40  1  0
 22 23  1  0
 22 24  2  0
 22 25  2  0
 23 41  1  6
 23 42  1  0
 23 43  1  0
M  END
$$$$
