ZINC000090608972
     RDKit          3D

 46 47  0  0  1  0  0  0  0  0999 V2000
   -1.1128    1.4457    0.2033 C   0  0  1  0  0  0  0  0  0  0  0  0
   -0.7677    0.0182    0.1681 N   0  0  1  0  0  0  0  0  0  0  0  0
   -0.1060   -0.1496   -0.5749 H   0  0  0  0  0  0  0  0  0  0  0  0
   -0.1715   -0.3733    1.4524 C   0  0  1  0  0  0  0  0  0  0  0  0
   -1.9821   -0.7734   -0.0696 C   0  0  1  0  0  0  0  0  0  0  0  0
   -1.6064   -2.2479   -0.2304 C   0  0  1  0  0  0  0  0  0  0  0  0
   -1.1055   -2.6004    0.6712 H   0  0  0  0  0  0  0  0  0  0  0  0
   -2.8752   -3.0833   -0.4807 C   0  0  1  0  0  0  0  0  0  0  0  0
   -2.6461   -4.7768   -0.1152 S   0  0  0  0  0  0  0  0  0  0  0  0
   -1.3193   -5.3149   -1.2551 C   0  0  1  0  0  0  0  0  0  0  0  0
    0.0049   -4.7926   -0.7950 C   0  0  1  0  0  0  0  0  0  0  0  0
    0.3494   -3.3932   -1.3686 C   0  0  1  0  0  0  0  0  0  0  0  0
   -0.7408   -2.4050   -1.3559 N   0  0  0  0  0  0  0  0  0  0  0  0
   -0.9730   -1.4474   -2.6868 S   0  0  1  0  0  0  0  0  0  0  0  0
   -1.1859   -0.1293   -2.2005 O   0  0  0  0  0  0  0  0  0  0  0  0
    0.0592   -1.7797   -3.6052 O   0  0  0  0  0  0  0  0  0  0  0  0
   -2.4862   -1.9522   -3.4350 C   0  0  0  0  0  0  0  0  0  0  0  0
   -2.4841   -2.9447   -4.3973 C   0  0  0  0  0  0  0  0  0  0  0  0
   -3.6713   -3.3408   -4.9843 C   0  0  0  0  0  0  0  0  0  0  0  0
   -4.8607   -2.7447   -4.6087 C   0  0  0  0  0  0  0  0  0  0  0  0
   -6.1548   -3.1761   -5.2490 C   0  0  1  0  0  0  0  0  0  0  0  0
   -6.7159   -4.2217   -4.5080 F   0  0  0  0  0  0  0  0  0  0  0  0
   -7.0435   -2.0960   -5.2782 F   0  0  0  0  0  0  0  0  0  0  0  0
   -5.9066   -3.6111   -6.5553 F   0  0  0  0  0  0  0  0  0  0  0  0
   -4.8629   -1.7532   -3.6455 C   0  0  0  0  0  0  0  0  0  0  0  0
   -3.6762   -1.3598   -3.0557 C   0  0  0  0  0  0  0  0  0  0  0  0
   -0.2117    2.0330    0.3797 H   0  0  0  0  0  0  0  0  0  0  0  0
   -1.5551    1.7361   -0.7496 H   0  0  0  0  0  0  0  0  0  0  0  0
   -1.8276    1.6270    1.0060 H   0  0  0  0  0  0  0  0  0  0  0  0
    0.0845   -1.4325    1.4262 H   0  0  0  0  0  0  0  0  0  0  0  0
    0.7296    0.2141    1.6287 H   0  0  0  0  0  0  0  0  0  0  0  0
   -0.8863   -0.1920    2.2551 H   0  0  0  0  0  0  0  0  0  0  0  0
   -2.6602   -0.6615    0.7765 H   0  0  0  0  0  0  0  0  0  0  0  0
   -2.4727   -0.4224   -0.9774 H   0  0  0  0  0  0  0  0  0  0  0  0
   -3.6815   -2.6945    0.1412 H   0  0  0  0  0  0  0  0  0  0  0  0
   -3.1614   -2.9844   -1.5278 H   0  0  0  0  0  0  0  0  0  0  0  0
   -1.2876   -6.4041   -1.2830 H   0  0  0  0  0  0  0  0  0  0  0  0
   -1.5283   -4.9370   -2.2559 H   0  0  0  0  0  0  0  0  0  0  0  0
   -0.0026   -4.7318    0.2932 H   0  0  0  0  0  0  0  0  0  0  0  0
    0.7816   -5.4950   -1.0976 H   0  0  0  0  0  0  0  0  0  0  0  0
    1.1829   -2.9866   -0.7958 H   0  0  0  0  0  0  0  0  0  0  0  0
    0.6817   -3.5203   -2.3989 H   0  0  0  0  0  0  0  0  0  0  0  0
   -1.5549   -3.4104   -4.6907 H   0  0  0  0  0  0  0  0  0  0  0  0
   -3.6696   -4.1157   -5.7366 H   0  0  0  0  0  0  0  0  0  0  0  0
   -5.7922   -1.2877   -3.3518 H   0  0  0  0  0  0  0  0  0  0  0  0
   -3.6779   -0.5851   -2.3032 H   0  0  0  0  0  0  0  0  0  0  0  0
  1  2  1  0
  1 27  1  1
  1 28  1  0
  1 29  1  0
  2  3  1  6
  2  4  1  0
  2  5  1  0
  4 30  1  6
  4 31  1  0
  4 32  1  0
  5  6  1  0
  5 33  1  1
  5 34  1  0
  6  7  1  1
  6 13  1  0
  6  8  1  0
  8  9  1  0
  8 35  1  1
  8 36  1  0
  9 10  1  0
 10 11  1  0
 10 37  1  6
 10 38  1  0
 11 12  1  0
 11 39  1  1
 11 40  1  0
 12 13  1  0
 12 41  1  1
 12 42  1  0
 14 13  1  1
 14 15  2  0
 14 16  2  0
 14 17  1  0
 17 26  2  0
 17 18  1  0
 18 19  2  0
 18 43  1  0
 19 20  1  0
 19 44  1  0
 20 21  1  0
 20 25  2  0
 21 22  1  1
 21 23  1  0
 21 24  1  0
 25 26  1  0
 25 45  1  0
 26 46  1  0
M  CHG  1   2   1
M  END
$$$$
