ZINC000032926714
     RDKit          3D

 46 47  0  0  1  0  0  0  0  0999 V2000
   -0.0187    1.5258    0.0104 C   0  0  1  0  0  0  0  0  0  0  0  0
    0.0021   -0.0041    0.0020 C   0  0  1  0  0  0  0  0  0  0  0  0
    0.5293   -0.3651    0.8851 H   0  0  0  0  0  0  0  0  0  0  0  0
   -1.4117   -0.5257    0.0127 C   0  0  0  0  0  0  0  0  0  0  0  0
   -1.9274   -0.9011   -1.0188 O   0  0  0  0  0  0  0  0  0  0  0  0
   -2.1031   -0.5750    1.1686 N   0  0  0  0  0  0  0  0  0  0  0  0
   -1.4932   -0.1177    2.4251 C   0  0  1  0  0  0  0  0  0  0  0  0
   -2.4002    0.9494    3.0503 C   0  0  1  0  0  0  0  0  0  0  0  0
   -3.7778    0.4379    3.0767 N   0  0  0  0  0  0  0  0  0  0  0  0
   -4.6276    0.3783    4.4967 S   0  0  1  0  0  0  0  0  0  0  0  0
   -5.6268   -0.6173    4.3249 O   0  0  0  0  0  0  0  0  0  0  0  0
   -3.6636    0.3401    5.5400 O   0  0  0  0  0  0  0  0  0  0  0  0
   -5.4776    1.9131    4.6606 C   0  0  0  0  0  0  0  0  0  0  0  0
   -4.8686    2.9753    5.3018 C   0  0  0  0  0  0  0  0  0  0  0  0
   -5.5355    4.1795    5.4304 C   0  0  0  0  0  0  0  0  0  0  0  0
   -6.8110    4.3213    4.9173 C   0  0  0  0  0  0  0  0  0  0  0  0
   -7.4198    3.2591    4.2751 C   0  0  0  0  0  0  0  0  0  0  0  0
   -8.8108    3.4135    3.7162 C   0  0  1  0  0  0  0  0  0  0  0  0
   -9.2734    4.7096    3.9682 F   0  0  0  0  0  0  0  0  0  0  0  0
   -8.7864    3.1872    2.3358 F   0  0  0  0  0  0  0  0  0  0  0  0
   -9.6638    2.4872    4.3256 F   0  0  0  0  0  0  0  0  0  0  0  0
   -6.7515    2.0565    4.1428 C   0  0  0  0  0  0  0  0  0  0  0  0
   -4.3877   -0.0194    1.8202 C   0  0  1  0  0  0  0  0  0  0  0  0
   -3.4826   -1.0812    1.1940 C   0  0  1  0  0  0  0  0  0  0  0  0
    0.8511   -0.5891   -1.4904 S   0  0  1  0  0  0  0  0  0  0  0  0
    2.4989    0.1441   -1.2958 C   0  0  1  0  0  0  0  0  0  0  0  0
    0.9731   -2.0029   -1.4171 O   0  0  0  0  0  0  0  0  0  0  0  0
    0.2267   -0.0045   -2.6251 O   0  0  0  0  0  0  0  0  0  0  0  0
    1.0039    1.9031    0.0027 H   0  0  0  0  0  0  0  0  0  0  0  0
   -0.5459    1.8868   -0.8726 H   0  0  0  0  0  0  0  0  0  0  0  0
   -0.5289    1.8773    0.9072 H   0  0  0  0  0  0  0  0  0  0  0  0
   -1.3924   -0.9593    3.1103 H   0  0  0  0  0  0  0  0  0  0  0  0
   -0.5118    0.3105    2.2207 H   0  0  0  0  0  0  0  0  0  0  0  0
   -2.0691    1.1610    4.0669 H   0  0  0  0  0  0  0  0  0  0  0  0
   -2.3595    1.8600    2.4526 H   0  0  0  0  0  0  0  0  0  0  0  0
   -3.8719    2.8645    5.7027 H   0  0  0  0  0  0  0  0  0  0  0  0
   -5.0599    5.0093    5.9320 H   0  0  0  0  0  0  0  0  0  0  0  0
   -7.3322    5.2618    5.0184 H   0  0  0  0  0  0  0  0  0  0  0  0
   -7.2271    1.2267    3.6412 H   0  0  0  0  0  0  0  0  0  0  0  0
   -5.3690   -0.4476    2.0245 H   0  0  0  0  0  0  0  0  0  0  0  0
   -4.4885    0.8222    1.1350 H   0  0  0  0  0  0  0  0  0  0  0  0
   -3.8149   -1.2919    0.1775 H   0  0  0  0  0  0  0  0  0  0  0  0
   -3.5211   -1.9927    1.7905 H   0  0  0  0  0  0  0  0  0  0  0  0
    2.9527   -0.2214   -0.3746 H   0  0  0  0  0  0  0  0  0  0  0  0
    3.1235   -0.1355   -2.1443 H   0  0  0  0  0  0  0  0  0  0  0  0
    2.4107    1.2296   -1.2517 H   0  0  0  0  0  0  0  0  0  0  0  0
  1  2  1  0
  1 29  1  6
  1 30  1  0
  1 31  1  0
  2  3  1  1
  2  4  1  0
 25  2  1  1
  4  5  2  0
  4  6  1  0
  6 24  1  0
  6  7  1  0
  7  8  1  0
  7 32  1  1
  7 33  1  0
  8  9  1  0
  8 34  1  1
  8 35  1  0
 10  9  1  6
  9 23  1  0
 10 11  2  0
 10 12  2  0
 10 13  1  0
 13 22  2  0
 13 14  1  0
 14 15  2  0
 14 36  1  0
 15 16  1  0
 15 37  1  0
 16 17  2  0
 16 38  1  0
 17 18  1  0
 17 22  1  0
 18 19  1  6
 18 20  1  0
 18 21  1  0
 22 39  1  0
 23 24  1  0
 23 40  1  1
 23 41  1  0
 24 42  1  6
 24 43  1  0
 25 26  1  0
 25 27  2  0
 25 28  2  0
 26 44  1  1
 26 45  1  0
 26 46  1  0
M  END
$$$$
