ZINC000408600838
     RDKit          3D

 47 48  0  0  0  0  0  0  0  0999 V2000
   -0.0062    1.5526    0.0062 C   0  0  1  0  0  0  0  0  0  0  0  0
    0.0154    0.0228   -0.0122 C   0  0  1  0  0  0  0  0  0  0  0  0
   -1.3588   -0.4850   -0.0092 N   0  0  0  0  0  0  0  0  0  0  0  0
   -2.0925   -0.6201   -1.2700 C   0  0  1  0  0  0  0  0  0  0  0  0
   -1.7528   -1.9647   -1.9162 C   0  0  1  0  0  0  0  0  0  0  0  0
   -2.0827   -0.9063    1.4194 S   0  0  1  0  0  0  0  0  0  0  0  0
   -3.1086   -1.8332    1.0912 O   0  0  0  0  0  0  0  0  0  0  0  0
   -1.0323   -1.1999    2.3302 O   0  0  0  0  0  0  0  0  0  0  0  0
   -2.8909    0.5318    2.0385 C   0  0  0  0  0  0  0  0  0  0  0  0
   -2.2103    1.4017    2.8704 C   0  0  0  0  0  0  0  0  0  0  0  0
   -2.8417    2.5299    3.3572 C   0  0  0  0  0  0  0  0  0  0  0  0
   -4.1595    2.7899    3.0103 C   0  0  0  0  0  0  0  0  0  0  0  0
   -4.7827    3.8994    3.4876 O   0  0  0  0  0  0  0  0  0  0  0  0
   -6.1397    4.1033    3.0889 C   0  0  1  0  0  0  0  0  0  0  0  0
   -6.6605    5.3734    3.7107 C   0  0  0  0  0  0  0  0  0  0  0  0
   -5.9404    6.0386    4.4249 O   0  0  0  0  0  0  0  0  0  0  0  0
   -7.9264    5.7703    3.4731 N   0  0  0  0  0  0  0  0  0  0  0  0
   -8.4411    6.8959    4.1261 C   0  0  0  0  0  0  0  0  0  0  0  0
   -9.7762    6.9296    4.5068 C   0  0  0  0  0  0  0  0  0  0  0  0
  -10.2813    8.0418    5.1510 C   0  0  0  0  0  0  0  0  0  0  0  0
   -9.4588    9.1219    5.4169 C   0  0  0  0  0  0  0  0  0  0  0  0
  -10.2295   10.8074    6.3938 I   0  0  0  0  0  0  0  0  0  0  0  0
   -8.1284    9.0911    5.0392 C   0  0  0  0  0  0  0  0  0  0  0  0
   -7.6163    7.9792    4.3998 C   0  0  0  0  0  0  0  0  0  0  0  0
   -4.8400    1.9158    2.1752 C   0  0  0  0  0  0  0  0  0  0  0  0
   -4.2027    0.7915    1.6872 C   0  0  0  0  0  0  0  0  0  0  0  0
    1.0162    1.9304    0.0040 H   0  0  0  0  0  0  0  0  0  0  0  0
   -0.5309    1.9192   -0.8760 H   0  0  0  0  0  0  0  0  0  0  0  0
   -0.5192    1.8979    0.9038 H   0  0  0  0  0  0  0  0  0  0  0  0
    0.5284   -0.3225   -0.9097 H   0  0  0  0  0  0  0  0  0  0  0  0
    0.5401   -0.3438    0.8701 H   0  0  0  0  0  0  0  0  0  0  0  0
   -3.1636   -0.5715   -1.0741 H   0  0  0  0  0  0  0  0  0  0  0  0
   -1.8093    0.1886   -1.9437 H   0  0  0  0  0  0  0  0  0  0  0  0
   -2.0360   -2.7735   -1.2425 H   0  0  0  0  0  0  0  0  0  0  0  0
   -2.2987   -2.0652   -2.8543 H   0  0  0  0  0  0  0  0  0  0  0  0
   -0.6816   -2.0133   -2.1121 H   0  0  0  0  0  0  0  0  0  0  0  0
   -1.1844    1.1987    3.1401 H   0  0  0  0  0  0  0  0  0  0  0  0
   -2.3099    3.2086    4.0075 H   0  0  0  0  0  0  0  0  0  0  0  0
   -6.1914    4.1826    2.0030 H   0  0  0  0  0  0  0  0  0  0  0  0
   -6.7465    3.2609    3.4210 H   0  0  0  0  0  0  0  0  0  0  0  0
   -8.4808    5.2757    2.8494 H   0  0  0  0  0  0  0  0  0  0  0  0
  -10.4189    6.0869    4.2989 H   0  0  0  0  0  0  0  0  0  0  0  0
  -11.3195    8.0686    5.4473 H   0  0  0  0  0  0  0  0  0  0  0  0
   -7.4886    9.9357    5.2480 H   0  0  0  0  0  0  0  0  0  0  0  0
   -6.5775    7.9556    4.1052 H   0  0  0  0  0  0  0  0  0  0  0  0
   -5.8661    2.1159    1.9040 H   0  0  0  0  0  0  0  0  0  0  0  0
   -4.7319    0.1109    1.0367 H   0  0  0  0  0  0  0  0  0  0  0  0
  1  2  1  0
  1 27  1  1
  1 28  1  0
  1 29  1  0
  2  3  1  0
  2 30  1  6
  2 31  1  0
  3  4  1  0
  6  3  1  6
  4  5  1  0
  4 32  1  1
  4 33  1  0
  5 34  1  1
  5 35  1  0
  5 36  1  0
  6  7  2  0
  6  8  2  0
  6  9  1  0
  9 26  2  0
  9 10  1  0
 10 11  2  0
 10 37  1  0
 11 12  1  0
 11 38  1  0
 12 13  1  0
 12 25  2  0
 13 14  1  0
 14 15  1  0
 14 39  1  6
 14 40  1  0
 15 16  2  0
 15 17  1  0
 17 18  1  0
 17 41  1  0
 18 24  2  0
 18 19  1  0
 19 20  2  0
 19 42  1  0
 20 21  1  0
 20 43  1  0
 21 22  1  0
 21 23  2  0
 23 24  1  0
 23 44  1  0
 24 45  1  0
 25 26  1  0
 25 46  1  0
 26 47  1  0
M  END
$$$$
