ZINC000009096930
     RDKit          3D

 61 62  0  0  1  0  0  0  0  0999 V2000
   -0.0187    1.5258    0.0104 C   0  0  1  0  0  0  0  0  0  0  0  0
    0.0021   -0.0041    0.0020 C   0  0  1  0  0  0  0  0  0  0  0  0
    0.7106   -0.4894    1.1889 N   0  0  0  0  0  0  0  0  0  0  0  0
   -0.0062   -0.6460    2.4569 C   0  0  1  0  0  0  0  0  0  0  0  0
   -0.6935   -2.0126    2.4888 C   0  0  1  0  0  0  0  0  0  0  0  0
    2.3218   -0.8609    1.0971 S   0  0  1  0  0  0  0  0  0  0  0  0
    2.5823   -1.7795    2.1496 O   0  0  0  0  0  0  0  0  0  0  0  0
    2.5905   -1.1471   -0.2686 O   0  0  0  0  0  0  0  0  0  0  0  0
    3.2182    0.6060    1.4837 C   0  0  0  0  0  0  0  0  0  0  0  0
    3.5675    1.4857    0.4745 C   0  0  0  0  0  0  0  0  0  0  0  0
    4.2692    2.6360    0.7701 C   0  0  0  0  0  0  0  0  0  0  0  0
    4.6270    2.9115    2.0913 C   0  0  0  0  0  0  0  0  0  0  0  0
    5.3781    4.1416    2.4155 C   0  0  0  0  0  0  0  0  0  0  0  0
    5.6858    4.9160    1.5317 O   0  0  0  0  0  0  0  0  0  0  0  0
    5.7217    4.4045    3.6912 O   0  0  0  0  0  0  0  0  0  0  0  0
    6.4588    5.6313    3.9359 C   0  0  1  0  0  0  0  0  0  0  0  0
    6.7531    5.7552    5.4087 C   0  0  0  0  0  0  0  0  0  0  0  0
    6.3785    4.8944    6.1765 O   0  0  0  0  0  0  0  0  0  0  0  0
    7.4326    6.8227    5.8726 N   0  0  0  0  0  0  0  0  0  0  0  0
    7.7187    6.9432    7.3044 C   0  0  2  0  0  0  0  0  0  0  0  0
    7.9020    5.9535    7.7228 H   0  0  0  0  0  0  0  0  0  0  0  0
    6.5219    7.5822    8.0116 C   0  0  1  0  0  0  0  0  0  0  0  0
    8.9570    7.8192    7.5051 C   0  0  1  0  0  0  0  0  0  0  0  0
   10.1788    7.1201    6.9056 C   0  0  1  0  0  0  0  0  0  0  0  0
   11.3984    7.9829    7.1033 C   0  0  0  0  0  0  0  0  0  0  0  0
   11.7459    8.9183    6.1466 C   0  0  0  0  0  0  0  0  0  0  0  0
   12.8646    9.7097    6.3279 C   0  0  0  0  0  0  0  0  0  0  0  0
   13.6357    9.5662    7.4662 C   0  0  0  0  0  0  0  0  0  0  0  0
   13.2877    8.6315    8.4234 C   0  0  0  0  0  0  0  0  0  0  0  0
   12.1666    7.8430    8.2441 C   0  0  0  0  0  0  0  0  0  0  0  0
    4.2712    2.0194    3.1048 C   0  0  0  0  0  0  0  0  0  0  0  0
    3.5646    0.8757    2.7959 C   0  0  0  0  0  0  0  0  0  0  0  0
    1.0039    1.9031    0.0027 H   0  0  0  0  0  0  0  0  0  0  0  0
   -0.5459    1.8868   -0.8726 H   0  0  0  0  0  0  0  0  0  0  0  0
   -0.5289    1.8773    0.9072 H   0  0  0  0  0  0  0  0  0  0  0  0
   -1.0205   -0.3814    0.0098 H   0  0  0  0  0  0  0  0  0  0  0  0
    0.5123   -0.3556   -0.8948 H   0  0  0  0  0  0  0  0  0  0  0  0
    0.6997   -0.5749    3.2845 H   0  0  0  0  0  0  0  0  0  0  0  0
   -0.7557    0.1399    2.5501 H   0  0  0  0  0  0  0  0  0  0  0  0
   -1.2268   -2.1291    3.4323 H   0  0  0  0  0  0  0  0  0  0  0  0
   -1.3993   -2.0837    1.6613 H   0  0  0  0  0  0  0  0  0  0  0  0
    0.0560   -2.7985    2.3957 H   0  0  0  0  0  0  0  0  0  0  0  0
    3.2904    1.2712   -0.5471 H   0  0  0  0  0  0  0  0  0  0  0  0
    4.5415    3.3216   -0.0187 H   0  0  0  0  0  0  0  0  0  0  0  0
    7.3955    5.6096    3.3788 H   0  0  0  0  0  0  0  0  0  0  0  0
    5.8627    6.4842    3.6115 H   0  0  0  0  0  0  0  0  0  0  0  0
    7.7323    7.5112    5.2586 H   0  0  0  0  0  0  0  0  0  0  0  0
    6.3385    8.5718    7.5932 H   0  0  0  0  0  0  0  0  0  0  0  0
    5.6397    6.9581    7.8686 H   0  0  0  0  0  0  0  0  0  0  0  0
    6.7347    7.6718    9.0768 H   0  0  0  0  0  0  0  0  0  0  0  0
    8.8076    8.7784    7.0095 H   0  0  0  0  0  0  0  0  0  0  0  0
    9.1180    7.9820    8.5708 H   0  0  0  0  0  0  0  0  0  0  0  0
   10.3281    6.1609    7.4012 H   0  0  0  0  0  0  0  0  0  0  0  0
   10.0178    6.9573    5.8399 H   0  0  0  0  0  0  0  0  0  0  0  0
   11.1435    9.0304    5.2572 H   0  0  0  0  0  0  0  0  0  0  0  0
   13.1365   10.4399    5.5801 H   0  0  0  0  0  0  0  0  0  0  0  0
   14.5102   10.1840    7.6076 H   0  0  0  0  0  0  0  0  0  0  0  0
   13.8903    8.5191    9.3126 H   0  0  0  0  0  0  0  0  0  0  0  0
   11.8947    7.1128    8.9919 H   0  0  0  0  0  0  0  0  0  0  0  0
    4.5449    2.2266    4.1288 H   0  0  0  0  0  0  0  0  0  0  0  0
    3.2888    0.1848    3.5788 H   0  0  0  0  0  0  0  0  0  0  0  0
  1  2  1  0
  1 33  1  6
  1 34  1  0
  1 35  1  0
  2  3  1  0
  2 36  1  1
  2 37  1  0
  3  4  1  0
  6  3  1  6
  4  5  1  0
  4 38  1  1
  4 39  1  0
  5 40  1  1
  5 41  1  0
  5 42  1  0
  6  7  2  0
  6  8  2  0
  6  9  1  0
  9 32  2  0
  9 10  1  0
 10 11  2  0
 10 43  1  0
 11 12  1  0
 11 44  1  0
 12 13  1  0
 12 31  2  0
 13 14  2  0
 13 15  1  0
 15 16  1  0
 16 17  1  0
 16 45  1  6
 16 46  1  0
 17 18  2  0
 17 19  1  0
 19 20  1  0
 19 47  1  0
 20 21  1  1
 20 22  1  0
 20 23  1  0
 22 48  1  6
 22 49  1  0
 22 50  1  0
 23 24  1  0
 23 51  1  6
 23 52  1  0
 24 25  1  0
 24 53  1  1
 24 54  1  0
 25 30  2  0
 25 26  1  0
 26 27  2  0
 26 55  1  0
 27 28  1  0
 27 56  1  0
 28 29  2  0
 28 57  1  0
 29 30  1  0
 29 58  1  0
 30 59  1  0
 31 32  1  0
 31 60  1  0
 32 61  1  0
M  END
$$$$
