ZINC000408619625
     RDKit          3D

 53 55  0  0  0  0  0  0  0  0999 V2000
   -0.0228    1.5524    0.0238 C   0  0  1  0  0  0  0  0  0  0  0  0
    0.0066    0.0227    0.0212 C   0  0  1  0  0  0  0  0  0  0  0  0
    0.6991   -0.4504   -1.1800 N   0  0  0  0  0  0  0  0  0  0  0  0
    2.1598   -0.5623   -1.1873 C   0  0  1  0  0  0  0  0  0  0  0  0
    2.5708   -1.9126   -0.5968 C   0  0  1  0  0  0  0  0  0  0  0  0
   -0.1693   -0.8587   -2.5297 S   0  0  1  0  0  0  0  0  0  0  0  0
    0.6424   -1.7582   -3.2722 O   0  0  0  0  0  0  0  0  0  0  0  0
   -1.4786   -1.1820   -2.0818 O   0  0  0  0  0  0  0  0  0  0  0  0
   -0.3242    0.5970   -3.5103 C   0  0  0  0  0  0  0  0  0  0  0  0
   -1.3985    1.4464   -3.3199 C   0  0  0  0  0  0  0  0  0  0  0  0
   -1.5223    2.5883   -4.0874 C   0  0  0  0  0  0  0  0  0  0  0  0
   -0.5672    2.8828   -5.0496 C   0  0  0  0  0  0  0  0  0  0  0  0
   -0.6865    4.0057   -5.8056 O   0  0  0  0  0  0  0  0  0  0  0  0
    0.3339    4.2453   -6.7769 C   0  0  1  0  0  0  0  0  0  0  0  0
    0.0358    5.5258   -7.5134 C   0  0  0  0  0  0  0  0  0  0  0  0
   -0.9533    6.1699   -7.2340 O   0  0  0  0  0  0  0  0  0  0  0  0
    0.8681    5.9553   -8.4825 N   0  0  0  0  0  0  0  0  0  0  0  0
    0.5418    7.0925   -9.2330 C   0  0  0  0  0  0  0  0  0  0  0  0
    0.8791    7.1573  -10.5778 C   0  0  0  0  0  0  0  0  0  0  0  0
    0.5594    8.2795  -11.3178 C   0  0  0  0  0  0  0  0  0  0  0  0
   -0.0988    9.3438  -10.7204 C   0  0  0  0  0  0  0  0  0  0  0  0
   -0.3980   10.4452  -11.4636 O   0  0  0  0  0  0  0  0  0  0  0  0
   -1.3837   11.3349  -10.9281 C   0  0  1  0  0  0  0  0  0  0  0  0
   -1.0608   11.5748   -9.4471 C   0  0  1  0  0  0  0  0  0  0  0  0
   -1.0917   10.3129   -8.7716 O   0  0  0  0  0  0  0  0  0  0  0  0
   -0.4412    9.2803   -9.3743 C   0  0  0  0  0  0  0  0  0  0  0  0
   -0.1239    8.1527   -8.6334 C   0  0  0  0  0  0  0  0  0  0  0  0
    0.5100    2.0292   -5.2384 C   0  0  0  0  0  0  0  0  0  0  0  0
    0.6317    0.8910   -4.4650 C   0  0  0  0  0  0  0  0  0  0  0  0
    0.9977    1.9354    0.0182 H   0  0  0  0  0  0  0  0  0  0  0  0
   -0.5490    1.9072   -0.8624 H   0  0  0  0  0  0  0  0  0  0  0  0
   -0.5380    1.9043    0.9176 H   0  0  0  0  0  0  0  0  0  0  0  0
    0.5328   -0.3322    0.9074 H   0  0  0  0  0  0  0  0  0  0  0  0
   -1.0139   -0.3603    0.0269 H   0  0  0  0  0  0  0  0  0  0  0  0
    2.5248   -0.4874   -2.2116 H   0  0  0  0  0  0  0  0  0  0  0  0
    2.5887    0.2416   -0.5890 H   0  0  0  0  0  0  0  0  0  0  0  0
    2.1418   -2.7164   -1.1950 H   0  0  0  0  0  0  0  0  0  0  0  0
    3.6576   -1.9958   -0.6022 H   0  0  0  0  0  0  0  0  0  0  0  0
    2.2057   -1.9874    0.4275 H   0  0  0  0  0  0  0  0  0  0  0  0
   -2.1418    1.2167   -2.5707 H   0  0  0  0  0  0  0  0  0  0  0  0
   -2.3620    3.2510   -3.9388 H   0  0  0  0  0  0  0  0  0  0  0  0
    1.2988    4.3299   -6.2770 H   0  0  0  0  0  0  0  0  0  0  0  0
    0.3631    3.4172   -7.4851 H   0  0  0  0  0  0  0  0  0  0  0  0
    1.6930    5.4771   -8.6605 H   0  0  0  0  0  0  0  0  0  0  0  0
    1.3920    6.3302  -11.0460 H   0  0  0  0  0  0  0  0  0  0  0  0
    0.8232    8.3281  -12.3640 H   0  0  0  0  0  0  0  0  0  0  0  0
   -1.3567   12.2813  -11.4681 H   0  0  0  0  0  0  0  0  0  0  0  0
   -2.3727   10.8863  -11.0206 H   0  0  0  0  0  0  0  0  0  0  0  0
   -0.0690   12.0173   -9.3541 H   0  0  0  0  0  0  0  0  0  0  0  0
   -1.8043   12.2429   -9.0123 H   0  0  0  0  0  0  0  0  0  0  0  0
   -0.3911    8.1007   -7.5882 H   0  0  0  0  0  0  0  0  0  0  0  0
    1.2546    2.2561   -5.9870 H   0  0  0  0  0  0  0  0  0  0  0  0
    1.4703    0.2264   -4.6113 H   0  0  0  0  0  0  0  0  0  0  0  0
  1  2  1  0
  1 30  1  6
  1 31  1  0
  1 32  1  0
  2  3  1  0
  2 33  1  1
  2 34  1  0
  3  4  1  0
  6  3  1  1
  4  5  1  0
  4 35  1  6
  4 36  1  0
  5 37  1  6
  5 38  1  0
  5 39  1  0
  6  7  2  0
  6  8  2  0
  6  9  1  0
  9 29  2  0
  9 10  1  0
 10 11  2  0
 10 40  1  0
 11 12  1  0
 11 41  1  0
 12 13  1  0
 12 28  2  0
 13 14  1  0
 14 15  1  0
 14 42  1  1
 14 43  1  0
 15 16  2  0
 15 17  1  0
 17 18  1  0
 17 44  1  0
 18 27  2  0
 18 19  1  0
 19 20  2  0
 19 45  1  0
 20 21  1  0
 20 46  1  0
 21 26  2  0
 21 22  1  0
 22 23  1  0
 23 24  1  0
 23 47  1  6
 23 48  1  0
 24 25  1  0
 24 49  1  6
 24 50  1  0
 25 26  1  0
 26 27  1  0
 27 51  1  0
 28 29  1  0
 28 52  1  0
 29 53  1  0
M  END
$$$$
