ZINC000185955206
     RDKit          3D

 42 43  0  0  1  0  0  0  0  0999 V2000
    0.7953    2.1788   -0.9722 C   0  0  1  0  0  0  0  0  0  0  0  0
    0.3114    0.7294   -1.0489 C   0  0  1  0  0  0  0  0  0  0  0  0
    1.4840   -0.1782   -1.3177 C   0  0  0  0  0  0  0  0  0  0  0  0
    2.6040    0.2728   -1.3396 O   0  0  0  0  0  0  0  0  0  0  0  0
    1.2590   -1.6486   -1.5590 C   0  0  2  0  0  0  0  0  0  0  0  0
    0.2950   -1.9436   -1.1445 H   0  0  0  0  0  0  0  0  0  0  0  0
    2.3750   -2.4558   -0.8884 C   0  0  1  0  0  0  0  0  0  0  0  0
    2.2195   -3.9341   -1.2527 C   0  0  1  0  0  0  0  0  0  0  0  0
    2.3448   -4.1035   -2.7685 C   0  0  1  0  0  0  0  0  0  0  0  0
    1.2284   -3.3150   -3.4604 C   0  0  1  0  0  0  0  0  0  0  0  0
    1.2779   -1.9193   -3.0030 N   0  0  0  0  0  0  0  0  0  0  0  0
    1.3596   -0.6762   -4.0940 S   0  0  1  0  0  0  0  0  0  0  0  0
    2.1194    0.3523   -3.4743 O   0  0  0  0  0  0  0  0  0  0  0  0
    1.7125   -1.2593   -5.3409 O   0  0  0  0  0  0  0  0  0  0  0  0
   -0.2731   -0.0421   -4.2856 C   0  0  0  0  0  0  0  0  0  0  0  0
   -0.5723    1.2361   -3.8623 C   0  0  0  0  0  0  0  0  0  0  0  0
   -1.8541    1.7357   -4.0119 C   0  0  0  0  0  0  0  0  0  0  0  0
   -2.8438    0.9580   -4.5859 C   0  0  0  0  0  0  0  0  0  0  0  0
   -4.2368    1.5106   -4.7446 C   0  0  1  0  0  0  0  0  0  0  0  0
   -4.2808    2.8156   -4.2423 F   0  0  0  0  0  0  0  0  0  0  0  0
   -4.5828    1.5208   -6.1001 F   0  0  0  0  0  0  0  0  0  0  0  0
   -5.1400    0.7086   -4.0388 F   0  0  0  0  0  0  0  0  0  0  0  0
   -2.5584   -0.3223   -5.0137 C   0  0  0  0  0  0  0  0  0  0  0  0
   -1.2658   -0.8304   -4.8714 C   0  0  0  0  0  0  0  0  0  0  0  0
   -0.9624   -2.1583   -5.3132 C   0  0  0  0  0  0  0  0  0  0  0  0
   -0.7217   -3.2118   -5.6636 N   0  0  0  0  0  0  0  0  0  0  0  0
    1.5979    2.2555   -0.2386 H   0  0  0  0  0  0  0  0  0  0  0  0
    1.1649    2.4907   -1.9490 H   0  0  0  0  0  0  0  0  0  0  0  0
   -0.0320    2.8228   -0.6742 H   0  0  0  0  0  0  0  0  0  0  0  0
   -0.1542    0.4513   -0.1034 H   0  0  0  0  0  0  0  0  0  0  0  0
   -0.4161    0.6314   -1.8547 H   0  0  0  0  0  0  0  0  0  0  0  0
    3.3434   -2.0955   -1.2353 H   0  0  0  0  0  0  0  0  0  0  0  0
    2.3090   -2.3388    0.1933 H   0  0  0  0  0  0  0  0  0  0  0  0
    2.9978   -4.5141   -0.7569 H   0  0  0  0  0  0  0  0  0  0  0  0
    1.2409   -4.2872   -0.9274 H   0  0  0  0  0  0  0  0  0  0  0  0
    3.3135   -3.7278   -3.0977 H   0  0  0  0  0  0  0  0  0  0  0  0
    2.2572   -5.1593   -3.0250 H   0  0  0  0  0  0  0  0  0  0  0  0
    1.3710   -3.3510   -4.5405 H   0  0  0  0  0  0  0  0  0  0  0  0
    0.2617   -3.7477   -3.2028 H   0  0  0  0  0  0  0  0  0  0  0  0
    0.1955    1.8483   -3.4128 H   0  0  0  0  0  0  0  0  0  0  0  0
   -2.0829    2.7372   -3.6788 H   0  0  0  0  0  0  0  0  0  0  0  0
   -3.3321   -0.9285   -5.4612 H   0  0  0  0  0  0  0  0  0  0  0  0
  1  2  1  0
  1 27  1  1
  1 28  1  0
  1 29  1  0
  2  3  1  0
  2 30  1  1
  2 31  1  0
  3  4  2  0
  3  5  1  0
  5  6  1  1
  5 11  1  0
  5  7  1  0
  7  8  1  0
  7 32  1  6
  7 33  1  0
  8  9  1  0
  8 34  1  1
  8 35  1  0
  9 10  1  0
  9 36  1  6
  9 37  1  0
 10 11  1  0
 10 38  1  6
 10 39  1  0
 12 11  1  1
 12 13  2  0
 12 14  2  0
 12 15  1  0
 15 24  2  0
 15 16  1  0
 16 17  2  0
 16 40  1  0
 17 18  1  0
 17 41  1  0
 18 19  1  0
 18 23  2  0
 19 20  1  1
 19 21  1  0
 19 22  1  0
 23 24  1  0
 23 42  1  0
 24 25  1  0
 25 26  3  0
M  END
$$$$
