ZINC000408553406
     RDKit          3D

 60 61  0  0  0  0  0  0  0  0999 V2000
   -0.0173    1.4248    0.0099 C   0  0  1  0  0  0  0  0  0  0  0  0
    0.0021   -0.0041    0.0020 O   0  0  0  0  0  0  0  0  0  0  0  0
    0.6518   -0.5703   -1.1379 C   0  0  1  0  0  0  0  0  0  0  0  0
    0.6131   -2.0967   -1.0411 C   0  0  1  0  0  0  0  0  0  0  0  0
    1.3087   -2.7029   -2.2615 C   0  0  1  0  0  0  0  0  0  0  0  0
    1.2717   -4.1645   -2.1688 N   0  0  0  0  0  0  0  0  0  0  0  0
    1.8279   -4.9157   -3.1398 C   0  0  0  0  0  0  0  0  0  0  0  0
    2.3592   -4.3816   -4.0903 O   0  0  0  0  0  0  0  0  0  0  0  0
    1.7898   -6.4192   -3.0444 C   0  0  1  0  0  0  0  0  0  0  0  0
    2.4559   -6.9996   -4.2130 N   0  0  0  0  0  0  0  0  0  0  0  0
    3.9101   -7.1769   -4.2144 C   0  0  1  0  0  0  0  0  0  0  0  0
    4.2630   -8.5030   -3.5377 C   0  0  1  0  0  0  0  0  0  0  0  0
    5.7589   -8.6853   -3.5391 C   0  0  0  0  0  0  0  0  0  0  0  0
    6.3766   -9.3216   -4.5995 C   0  0  0  0  0  0  0  0  0  0  0  0
    7.7488   -9.4888   -4.6008 C   0  0  0  0  0  0  0  0  0  0  0  0
    8.5033   -9.0193   -3.5419 C   0  0  0  0  0  0  0  0  0  0  0  0
    7.8857   -8.3822   -2.4820 C   0  0  0  0  0  0  0  0  0  0  0  0
    6.5139   -8.2112   -2.4827 C   0  0  0  0  0  0  0  0  0  0  0  0
    1.5650   -7.4555   -5.5324 S   0  0  1  0  0  0  0  0  0  0  0  0
    2.3330   -8.4366   -6.2157 O   0  0  0  0  0  0  0  0  0  0  0  0
    0.2444   -7.6903   -5.0632 O   0  0  0  0  0  0  0  0  0  0  0  0
    1.4712   -6.0611   -6.6055 C   0  0  0  0  0  0  0  0  0  0  0  0
    0.4367   -5.1542   -6.4697 C   0  0  0  0  0  0  0  0  0  0  0  0
    0.3611   -4.0597   -7.3096 C   0  0  0  0  0  0  0  0  0  0  0  0
    1.3244   -3.8713   -8.2896 C   0  0  0  0  0  0  0  0  0  0  0  0
    1.2526   -2.7953   -9.1167 O   0  0  0  0  0  0  0  0  0  0  0  0
    0.1577   -1.8982   -8.9205 C   0  0  1  0  0  0  0  0  0  0  0  0
    2.3618   -4.7829   -8.4239 C   0  0  0  0  0  0  0  0  0  0  0  0
    3.4104   -4.5809   -9.4872 C   0  0  1  0  0  0  0  0  0  0  0  0
    2.4358   -5.8726   -7.5783 C   0  0  0  0  0  0  0  0  0  0  0  0
    1.0053    1.8021    0.0021 H   0  0  0  0  0  0  0  0  0  0  0  0
   -0.5445    1.7859   -0.8732 H   0  0  0  0  0  0  0  0  0  0  0  0
   -0.5275    1.7763    0.9067 H   0  0  0  0  0  0  0  0  0  0  0  0
    0.1385   -0.2506   -2.0447 H   0  0  0  0  0  0  0  0  0  0  0  0
    1.6883   -0.2344   -1.1694 H   0  0  0  0  0  0  0  0  0  0  0  0
    1.1264   -2.4164   -0.1342 H   0  0  0  0  0  0  0  0  0  0  0  0
   -0.4234   -2.4326   -1.0095 H   0  0  0  0  0  0  0  0  0  0  0  0
    0.7954   -2.3833   -3.1684 H   0  0  0  0  0  0  0  0  0  0  0  0
    2.3452   -2.3671   -2.2930 H   0  0  0  0  0  0  0  0  0  0  0  0
    0.8468   -4.5917   -1.4086 H   0  0  0  0  0  0  0  0  0  0  0  0
    2.3031   -6.7389   -2.1376 H   0  0  0  0  0  0  0  0  0  0  0  0
    0.7533   -6.7551   -3.0129 H   0  0  0  0  0  0  0  0  0  0  0  0
    4.2742   -7.1850   -5.2418 H   0  0  0  0  0  0  0  0  0  0  0  0
    4.3767   -6.3558   -3.6701 H   0  0  0  0  0  0  0  0  0  0  0  0
    3.8989   -8.4948   -2.5104 H   0  0  0  0  0  0  0  0  0  0  0  0
    3.7964   -9.3240   -4.0821 H   0  0  0  0  0  0  0  0  0  0  0  0
    5.7872   -9.6884   -5.4268 H   0  0  0  0  0  0  0  0  0  0  0  0
    8.2314   -9.9865   -5.4289 H   0  0  0  0  0  0  0  0  0  0  0  0
    9.5753   -9.1506   -3.5426 H   0  0  0  0  0  0  0  0  0  0  0  0
    8.4751   -8.0157   -1.6545 H   0  0  0  0  0  0  0  0  0  0  0  0
    6.0314   -7.7134   -1.6546 H   0  0  0  0  0  0  0  0  0  0  0  0
   -0.3133   -5.3016   -5.7067 H   0  0  0  0  0  0  0  0  0  0  0  0
   -0.4475   -3.3517   -7.2033 H   0  0  0  0  0  0  0  0  0  0  0  0
    0.2196   -1.0857   -9.6444 H   0  0  0  0  0  0  0  0  0  0  0  0
   -0.7810   -2.4353   -9.0565 H   0  0  0  0  0  0  0  0  0  0  0  0
    0.1994   -1.4893   -7.9109 H   0  0  0  0  0  0  0  0  0  0  0  0
    4.2289   -3.9860   -9.0821 H   0  0  0  0  0  0  0  0  0  0  0  0
    3.7910   -5.5497   -9.8109 H   0  0  0  0  0  0  0  0  0  0  0  0
    2.9698   -4.0611  -10.3379 H   0  0  0  0  0  0  0  0  0  0  0  0
    3.2432   -6.5823   -7.6822 H   0  0  0  0  0  0  0  0  0  0  0  0
  1  2  1  0
  1 31  1  6
  1 32  1  0
  1 33  1  0
  2  3  1  0
  3  4  1  0
  3 34  1  6
  3 35  1  0
  4  5  1  0
  4 36  1  1
  4 37  1  0
  5  6  1  0
  5 38  1  6
  5 39  1  0
  6  7  1  0
  6 40  1  0
  7  8  2  0
  7  9  1  0
  9 10  1  0
  9 41  1  1
  9 42  1  0
 10 11  1  0
 19 10  1  1
 11 12  1  0
 11 43  1  6
 11 44  1  0
 12 13  1  0
 12 45  1  1
 12 46  1  0
 13 18  2  0
 13 14  1  0
 14 15  2  0
 14 47  1  0
 15 16  1  0
 15 48  1  0
 16 17  2  0
 16 49  1  0
 17 18  1  0
 17 50  1  0
 18 51  1  0
 19 20  2  0
 19 21  2  0
 19 22  1  0
 22 30  2  0
 22 23  1  0
 23 24  2  0
 23 52  1  0
 24 25  1  0
 24 53  1  0
 25 26  1  0
 25 28  2  0
 26 27  1  0
 27 54  1  6
 27 55  1  0
 27 56  1  0
 28 29  1  0
 28 30  1  0
 29 57  1  1
 29 58  1  0
 29 59  1  0
 30 60  1  0
M  END
$$$$
