ZINC000096120093
     RDKit          3D

 50 51  0  0  1  0  0  0  0  0999 V2000
    0.0344    1.2177    0.3199 C   0  0  1  0  0  0  0  0  0  0  0  0
    0.0852   -0.3013    0.1438 C   0  0  1  0  0  0  0  0  0  0  0  0
    1.0025   -0.9076    1.2077 C   0  0  1  0  0  0  0  0  0  0  0  0
   -1.3231   -0.8797    0.2949 C   0  0  1  0  0  0  0  0  0  0  0  0
    0.7279   -0.6976   -1.5056 S   0  0  1  0  0  0  0  0  0  0  0  0
    0.7189   -2.1093   -1.6678 O   0  0  0  0  0  0  0  0  0  0  0  0
    0.0578    0.1147   -2.4598 O   0  0  0  0  0  0  0  0  0  0  0  0
    2.4499   -0.1411   -1.3806 C   0  0  2  0  0  0  0  0  0  0  0  0
    2.9145   -0.5170   -0.4690 H   0  0  0  0  0  0  0  0  0  0  0  0
    2.5411    1.4060   -1.4541 C   0  0  1  0  0  0  0  0  0  0  0  0
    3.9603    1.6424   -2.0122 C   0  0  1  0  0  0  0  0  0  0  0  0
    4.3658    0.4129   -2.7089 N   0  0  0  0  0  0  0  0  0  0  0  0
    5.5513    0.2090   -3.3167 C   0  0  0  0  0  0  0  0  0  0  0  0
    5.7787   -0.8499   -3.8626 O   0  0  0  0  0  0  0  0  0  0  0  0
    6.5944    1.2967   -3.3179 C   0  0  1  0  0  0  0  0  0  0  0  0
    7.8361    0.8117   -4.0688 C   0  0  1  0  0  0  0  0  0  0  0  0
    8.8792    1.8994   -4.0700 C   0  0  0  0  0  0  0  0  0  0  0  0
    8.9039    2.8321   -5.0900 C   0  0  0  0  0  0  0  0  0  0  0  0
    9.8607    3.8298   -5.0911 C   0  0  0  0  0  0  0  0  0  0  0  0
   10.7924    3.8951   -4.0720 C   0  0  0  0  0  0  0  0  0  0  0  0
   11.8358    4.9825   -4.0735 C   0  0  1  0  0  0  0  0  0  0  0  0
   11.3484    6.0974   -3.3831 F   0  0  0  0  0  0  0  0  0  0  0  0
   12.9962    4.5163   -3.4464 F   0  0  0  0  0  0  0  0  0  0  0  0
   12.1313    5.3434   -5.3925 F   0  0  0  0  0  0  0  0  0  0  0  0
   10.7668    2.9633   -3.0513 C   0  0  0  0  0  0  0  0  0  0  0  0
    9.8076    1.9678   -3.0482 C   0  0  0  0  0  0  0  0  0  0  0  0
    3.2614   -0.5613   -2.6314 C   0  0  1  0  0  0  0  0  0  0  0  0
    1.0494    1.6121    0.3679 H   0  0  0  0  0  0  0  0  0  0  0  0
   -0.4893    1.6641   -0.5255 H   0  0  0  0  0  0  0  0  0  0  0  0
   -0.4932    1.4591    1.2426 H   0  0  0  0  0  0  0  0  0  0  0  0
    0.5614   -0.7614    2.1937 H   0  0  0  0  0  0  0  0  0  0  0  0
    1.1233   -1.9742    1.0182 H   0  0  0  0  0  0  0  0  0  0  0  0
    1.9761   -0.4191    1.1692 H   0  0  0  0  0  0  0  0  0  0  0  0
   -1.9766   -0.4477   -0.4630 H   0  0  0  0  0  0  0  0  0  0  0  0
   -1.2869   -1.9618    0.1695 H   0  0  0  0  0  0  0  0  0  0  0  0
   -1.7093   -0.6415    1.2860 H   0  0  0  0  0  0  0  0  0  0  0  0
    1.7881    1.8049   -2.1337 H   0  0  0  0  0  0  0  0  0  0  0  0
    2.4386    1.8459   -0.4621 H   0  0  0  0  0  0  0  0  0  0  0  0
    3.9492    2.4783   -2.7116 H   0  0  0  0  0  0  0  0  0  0  0  0
    4.6505    1.8498   -1.1944 H   0  0  0  0  0  0  0  0  0  0  0  0
    6.1947    2.1828   -3.8110 H   0  0  0  0  0  0  0  0  0  0  0  0
    6.8639    1.5428   -2.2908 H   0  0  0  0  0  0  0  0  0  0  0  0
    8.2358   -0.0744   -3.5757 H   0  0  0  0  0  0  0  0  0  0  0  0
    7.5666    0.5656   -5.0959 H   0  0  0  0  0  0  0  0  0  0  0  0
    8.1760    2.7811   -5.8862 H   0  0  0  0  0  0  0  0  0  0  0  0
    9.8805    4.5581   -5.8884 H   0  0  0  0  0  0  0  0  0  0  0  0
   11.4945    3.0145   -2.2549 H   0  0  0  0  0  0  0  0  0  0  0  0
    9.7876    1.2398   -2.2507 H   0  0  0  0  0  0  0  0  0  0  0  0
    3.6539   -1.5707   -2.5088 H   0  0  0  0  0  0  0  0  0  0  0  0
    2.6391   -0.5011   -3.5243 H   0  0  0  0  0  0  0  0  0  0  0  0
  1  2  1  0
  1 28  1  1
  1 29  1  0
  1 30  1  0
  2  3  1  0
  2  4  1  0
  2  5  1  6
  3 31  1  1
  3 32  1  0
  3 33  1  0
  4 34  1  6
  4 35  1  0
  4 36  1  0
  5  6  2  0
  5  7  2  0
  5  8  1  1
  8  9  1  1
  8 27  1  0
  8 10  1  0
 10 11  1  0
 10 37  1  6
 10 38  1  0
 11 12  1  0
 11 39  1  6
 11 40  1  0
 12 13  1  0
 12 27  1  0
 13 14  2  0
 13 15  1  0
 15 16  1  0
 15 41  1  6
 15 42  1  0
 16 17  1  0
 16 43  1  1
 16 44  1  0
 17 26  2  0
 17 18  1  0
 18 19  2  0
 18 45  1  0
 19 20  1  0
 19 46  1  0
 20 21  1  0
 20 25  2  0
 21 22  1  1
 21 23  1  0
 21 24  1  0
 25 26  1  0
 25 47  1  0
 26 48  1  0
 27 49  1  1
 27 50  1  0
M  END
$$$$
