ZINC000012993009
     RDKit          3D

 49 52  0  0  1  0  0  0  0  0999 V2000
    0.0021   -0.0041    0.0020 O   0  0  0  0  0  0  0  0  0  0  0  0
   -0.0172    1.4168    0.0098 S   0  0  1  0  0  0  0  0  0  0  0  0
    1.1617    2.2101    0.0028 O   0  0  0  0  0  0  0  0  0  0  0  0
   -0.9567    1.9094   -1.3970 C   0  0  0  0  0  0  0  0  0  0  0  0
   -1.8848    1.0442   -1.9458 C   0  0  0  0  0  0  0  0  0  0  0  0
   -2.6219    1.4307   -3.0496 C   0  0  0  0  0  0  0  0  0  0  0  0
   -2.4313    2.6825   -3.6042 C   0  0  0  0  0  0  0  0  0  0  0  0
   -3.2345    3.1036   -4.8078 C   0  0  1  0  0  0  0  0  0  0  0  0
   -4.4138    3.7273   -4.3864 F   0  0  0  0  0  0  0  0  0  0  0  0
   -2.4843    3.9973   -5.5796 F   0  0  0  0  0  0  0  0  0  0  0  0
   -3.5510    1.9771   -5.5746 F   0  0  0  0  0  0  0  0  0  0  0  0
   -1.5042    3.5481   -3.0546 C   0  0  0  0  0  0  0  0  0  0  0  0
   -0.7699    3.1631   -1.9485 C   0  0  0  0  0  0  0  0  0  0  0  0
   -0.8748    1.8654    1.3536 N   0  0  0  0  0  0  0  0  0  0  0  0
   -0.7685    3.1619    2.0474 C   0  0  1  0  0  0  0  0  0  0  0  0
   -1.2409    2.8768    3.4949 C   0  0  1  0  0  0  0  0  0  0  0  0
   -2.3841    1.8558    3.2541 C   0  0  1  0  0  0  0  0  0  0  0  0
   -1.8728    1.0392    2.0485 C   0  0  1  0  0  0  0  0  0  0  0  0
   -1.4065    0.1174    2.3961 H   0  0  0  0  0  0  0  0  0  0  0  0
   -3.0190    0.7168    1.1247 C   0  0  0  0  0  0  0  0  0  0  0  0
   -3.4921    1.6787    0.2523 C   0  0  0  0  0  0  0  0  0  0  0  0
   -4.5444    1.3901   -0.5989 C   0  0  0  0  0  0  0  0  0  0  0  0
   -5.1224    0.1326   -0.5734 C   0  0  0  0  0  0  0  0  0  0  0  0
   -6.1616   -0.1649   -1.4063 O   0  0  0  0  0  0  0  0  0  0  0  0
   -5.8828   -1.1127   -2.4390 C   0  0  1  0  0  0  0  0  0  0  0  0
   -6.0357   -2.5344   -1.9217 C   0  0  1  0  0  0  0  0  0  0  0  0
   -5.0154   -2.8721   -0.8460 C   0  0  1  0  0  0  0  0  0  0  0  0
   -5.2229   -2.0706    0.3188 O   0  0  0  0  0  0  0  0  0  0  0  0
   -4.6466   -0.8336    0.3021 C   0  0  0  0  0  0  0  0  0  0  0  0
   -3.5906   -0.5432    1.1486 C   0  0  0  0  0  0  0  0  0  0  0  0
   -2.0336    0.0662   -1.5125 H   0  0  0  0  0  0  0  0  0  0  0  0
   -3.3464    0.7545   -3.4788 H   0  0  0  0  0  0  0  0  0  0  0  0
   -1.3556    4.5263   -3.4877 H   0  0  0  0  0  0  0  0  0  0  0  0
   -0.0456    3.8394   -1.5191 H   0  0  0  0  0  0  0  0  0  0  0  0
    0.2648    3.5088    2.0469 H   0  0  0  0  0  0  0  0  0  0  0  0
   -1.4174    3.8993    1.5749 H   0  0  0  0  0  0  0  0  0  0  0  0
   -0.4401    2.4342    4.0872 H   0  0  0  0  0  0  0  0  0  0  0  0
   -1.6196    3.7830    3.9679 H   0  0  0  0  0  0  0  0  0  0  0  0
   -2.5200    1.2163    4.1263 H   0  0  0  0  0  0  0  0  0  0  0  0
   -3.3124    2.3685    3.0022 H   0  0  0  0  0  0  0  0  0  0  0  0
   -3.0392    2.6591    0.2350 H   0  0  0  0  0  0  0  0  0  0  0  0
   -4.9133    2.1428   -1.2798 H   0  0  0  0  0  0  0  0  0  0  0  0
   -6.5747   -0.9556   -3.2664 H   0  0  0  0  0  0  0  0  0  0  0  0
   -4.8622   -0.9676   -2.7931 H   0  0  0  0  0  0  0  0  0  0  0  0
   -7.0372   -2.6540   -1.5085 H   0  0  0  0  0  0  0  0  0  0  0  0
   -5.9140   -3.2279   -2.7539 H   0  0  0  0  0  0  0  0  0  0  0  0
   -5.1106   -3.9245   -0.5789 H   0  0  0  0  0  0  0  0  0  0  0  0
   -4.0127   -2.6901   -1.2327 H   0  0  0  0  0  0  0  0  0  0  0  0
   -3.2170   -1.2955    1.8274 H   0  0  0  0  0  0  0  0  0  0  0  0
  1  2  2  0
  2  3  2  0
  2  4  1  0
  2 14  1  1
  4 13  2  0
  4  5  1  0
  5  6  2  0
  5 31  1  0
  6  7  1  0
  6 32  1  0
  7  8  1  0
  7 12  2  0
  8  9  1  1
  8 10  1  0
  8 11  1  0
 12 13  1  0
 12 33  1  0
 13 34  1  0
 14 18  1  0
 14 15  1  0
 15 16  1  0
 15 35  1  1
 15 36  1  0
 16 17  1  0
 16 37  1  1
 16 38  1  0
 17 18  1  0
 17 39  1  1
 17 40  1  0
 18 19  1  1
 18 20  1  0
 20 30  2  0
 20 21  1  0
 21 22  2  0
 21 41  1  0
 22 23  1  0
 22 42  1  0
 23 29  2  0
 23 24  1  0
 24 25  1  0
 25 26  1  0
 25 43  1  6
 25 44  1  0
 26 27  1  0
 26 45  1  1
 26 46  1  0
 27 28  1  0
 27 47  1  1
 27 48  1  0
 28 29  1  0
 29 30  1  0
 30 49  1  0
M  END
$$$$
