ZINC000028654819
     RDKit          3D

 46 48  0  0  1  0  0  0  0  0999 V2000
    0.4855   -0.5151    0.6140 C   0  0  1  0  0  0  0  0  0  0  0  0
    0.2940   -1.4074   -0.6140 C   0  0  1  0  0  0  0  0  0  0  0  0
   -0.7538   -1.6970   -0.6938 H   0  0  0  0  0  0  0  0  0  0  0  0
    0.7107   -0.6405   -1.8743 C   0  0  1  0  0  0  0  0  0  0  0  0
    2.1655   -0.4250   -1.8266 N   0  0  0  0  0  0  0  0  0  0  0  0
    2.6920    0.8005   -2.0203 C   0  0  0  0  0  0  0  0  0  0  0  0
    1.9717    1.7294   -2.3309 O   0  0  0  0  0  0  0  0  0  0  0  0
    4.1433    1.0149   -1.8554 C   0  0  0  0  0  0  0  0  0  0  0  0
    4.7809    0.6254   -0.6777 C   0  0  0  0  0  0  0  0  0  0  0  0
    6.1375    0.8282   -0.5288 C   0  0  0  0  0  0  0  0  0  0  0  0
    6.8734    1.4177   -1.5429 C   0  0  0  0  0  0  0  0  0  0  0  0
    6.2592    1.8097   -2.7158 C   0  0  0  0  0  0  0  0  0  0  0  0
    4.8929    1.6079   -2.8873 C   0  0  0  0  0  0  0  0  0  0  0  0
    4.2296    2.0270   -4.1445 C   0  0  0  0  0  0  0  0  0  0  0  0
    3.4476    1.1203   -4.8591 C   0  0  0  0  0  0  0  0  0  0  0  0
    2.8324    1.5163   -6.0291 C   0  0  0  0  0  0  0  0  0  0  0  0
    2.9903    2.8099   -6.4933 C   0  0  0  0  0  0  0  0  0  0  0  0
    2.3157    3.2361   -7.7718 C   0  0  1  0  0  0  0  0  0  0  0  0
    1.0447    3.7436   -7.4816 F   0  0  0  0  0  0  0  0  0  0  0  0
    3.0820    4.2263   -8.3957 F   0  0  0  0  0  0  0  0  0  0  0  0
    2.1941    2.1338   -8.6247 F   0  0  0  0  0  0  0  0  0  0  0  0
    3.7645    3.7140   -5.7884 C   0  0  0  0  0  0  0  0  0  0  0  0
    4.3803    3.3311   -4.6143 C   0  0  0  0  0  0  0  0  0  0  0  0
    3.0285   -1.5868   -1.5607 C   0  0  1  0  0  0  0  0  0  0  0  0
    2.4989   -2.3076   -0.3157 C   0  0  2  0  0  0  0  0  0  0  0  0
    2.6434   -1.6751    0.5602 H   0  0  0  0  0  0  0  0  0  0  0  0
    3.2561   -3.6236   -0.1263 C   0  0  1  0  0  0  0  0  0  0  0  0
    1.1044   -2.5780   -0.4847 O   0  0  0  0  0  0  0  0  0  0  0  0
    1.5335   -0.2259    0.6931 H   0  0  0  0  0  0  0  0  0  0  0  0
   -0.1313    0.3780    0.5138 H   0  0  0  0  0  0  0  0  0  0  0  0
    0.1907   -1.0616    1.5098 H   0  0  0  0  0  0  0  0  0  0  0  0
    0.4546   -1.2225   -2.7596 H   0  0  0  0  0  0  0  0  0  0  0  0
    0.1979    0.3208   -1.9053 H   0  0  0  0  0  0  0  0  0  0  0  0
    4.2129    0.1657    0.1176 H   0  0  0  0  0  0  0  0  0  0  0  0
    6.6284    0.5255    0.3843 H   0  0  0  0  0  0  0  0  0  0  0  0
    7.9347    1.5723   -1.4155 H   0  0  0  0  0  0  0  0  0  0  0  0
    6.8400    2.2688   -3.5021 H   0  0  0  0  0  0  0  0  0  0  0  0
    3.3239    0.1101   -4.4978 H   0  0  0  0  0  0  0  0  0  0  0  0
    2.2267    0.8149   -6.5837 H   0  0  0  0  0  0  0  0  0  0  0  0
    3.8842    4.7226   -6.1557 H   0  0  0  0  0  0  0  0  0  0  0  0
    4.9843    4.0378   -4.0647 H   0  0  0  0  0  0  0  0  0  0  0  0
    3.0058   -2.2640   -2.4145 H   0  0  0  0  0  0  0  0  0  0  0  0
    4.0507   -1.2520   -1.3841 H   0  0  0  0  0  0  0  0  0  0  0  0
    4.3189   -3.4165   -0.0012 H   0  0  0  0  0  0  0  0  0  0  0  0
    2.8790   -4.1355    0.7591 H   0  0  0  0  0  0  0  0  0  0  0  0
    3.1097   -4.2562   -1.0018 H   0  0  0  0  0  0  0  0  0  0  0  0
  1  2  1  0
  1 29  1  1
  1 30  1  0
  1 31  1  0
  2  3  1  6
  2 28  1  0
  2  4  1  0
  4  5  1  0
  4 32  1  6
  4 33  1  0
  5  6  1  0
  5 24  1  0
  6  7  2  0
  6  8  1  0
  8 13  2  0
  8  9  1  0
  9 10  2  0
  9 34  1  0
 10 11  1  0
 10 35  1  0
 11 12  2  0
 11 36  1  0
 12 13  1  0
 12 37  1  0
 13 14  1  0
 14 23  2  0
 14 15  1  0
 15 16  2  0
 15 38  1  0
 16 17  1  0
 16 39  1  0
 17 18  1  0
 17 22  2  0
 18 19  1  1
 18 20  1  0
 18 21  1  0
 22 23  1  0
 22 40  1  0
 23 41  1  0
 24 25  1  0
 24 42  1  6
 24 43  1  0
 25 26  1  1
 25 27  1  0
 25 28  1  0
 27 44  1  1
 27 45  1  0
 27 46  1  0
M  END
$$$$
