ZINC000072354602
     RDKit          3D

 42 44  0  0  1  0  0  0  0  0999 V2000
   -0.0184    1.5028    0.0103 C   0  0  1  0  0  0  0  0  0  0  0  0
    0.0021   -0.0041    0.0020 C   0  0  0  0  0  0  0  0  0  0  0  0
    1.0605   -0.5961   -0.0113 O   0  0  0  0  0  0  0  0  0  0  0  0
   -1.1558   -0.6938    0.0094 N   0  0  0  0  0  0  0  0  0  0  0  0
   -2.5070   -0.1042    0.0190 C   0  0  1  0  0  0  0  0  0  0  0  0
   -3.4210   -1.1974   -0.5886 C   0  0  1  0  0  0  0  0  0  0  0  0
   -2.7877   -2.4901   -0.0096 C   0  0  1  0  0  0  0  0  0  0  0  0
   -1.2807   -2.1587    0.0027 C   0  0  2  0  0  0  0  0  0  0  0  0
   -0.8029   -2.5723   -0.8854 H   0  0  0  0  0  0  0  0  0  0  0  0
   -0.6404   -2.7295    1.2418 C   0  0  0  0  0  0  0  0  0  0  0  0
   -0.8311   -2.1590    2.4180 N   0  0  0  0  0  0  0  0  0  0  0  0
   -0.2721   -2.6548    3.5128 C   0  0  0  0  0  0  0  0  0  0  0  0
   -0.4970   -2.0280    4.7255 N   0  0  0  0  0  0  0  0  0  0  0  0
    0.4957   -3.7343    3.4786 N   0  0  0  0  0  0  0  0  0  0  0  0
    0.7337   -4.3612    2.3399 C   0  0  0  0  0  0  0  0  0  0  0  0
    0.1587   -3.8732    1.1640 C   0  0  0  0  0  0  0  0  0  0  0  0
    0.3989   -4.5462   -0.1363 C   0  0  0  0  0  0  0  0  0  0  0  0
   -0.6735   -4.8677   -0.9660 C   0  0  0  0  0  0  0  0  0  0  0  0
   -0.4442   -5.4933   -2.1747 C   0  0  0  0  0  0  0  0  0  0  0  0
    0.8472   -5.8015   -2.5628 C   0  0  0  0  0  0  0  0  0  0  0  0
    1.0913   -6.4845   -3.8838 C   0  0  1  0  0  0  0  0  0  0  0  0
    1.2704   -5.5202   -4.8814 F   0  0  0  0  0  0  0  0  0  0  0  0
    2.2386   -7.2798   -3.7926 F   0  0  0  0  0  0  0  0  0  0  0  0
   -0.0086   -7.2877   -4.2037 F   0  0  0  0  0  0  0  0  0  0  0  0
    1.9155   -5.4846   -1.7432 C   0  0  0  0  0  0  0  0  0  0  0  0
    1.6982   -4.8538   -0.5350 C   0  0  0  0  0  0  0  0  0  0  0  0
    1.0042    1.8801    0.0026 H   0  0  0  0  0  0  0  0  0  0  0  0
   -0.5455    1.8639   -0.8728 H   0  0  0  0  0  0  0  0  0  0  0  0
   -0.5286    1.8543    0.9071 H   0  0  0  0  0  0  0  0  0  0  0  0
   -2.8145    0.1230    1.0397 H   0  0  0  0  0  0  0  0  0  0  0  0
   -2.5325    0.7960   -0.5951 H   0  0  0  0  0  0  0  0  0  0  0  0
   -4.4498   -1.0800   -0.2483 H   0  0  0  0  0  0  0  0  0  0  0  0
   -3.3680   -1.1902   -1.6773 H   0  0  0  0  0  0  0  0  0  0  0  0
   -3.1529   -2.6797    0.9998 H   0  0  0  0  0  0  0  0  0  0  0  0
   -2.9876   -3.3420   -0.6595 H   0  0  0  0  0  0  0  0  0  0  0  0
   -1.0571   -1.2371    4.7661 H   0  0  0  0  0  0  0  0  0  0  0  0
   -0.0946   -2.3794    5.5351 H   0  0  0  0  0  0  0  0  0  0  0  0
    1.3605   -5.2405    2.3193 H   0  0  0  0  0  0  0  0  0  0  0  0
   -1.6823   -4.6282   -0.6636 H   0  0  0  0  0  0  0  0  0  0  0  0
   -1.2746   -5.7430   -2.8185 H   0  0  0  0  0  0  0  0  0  0  0  0
    2.9217   -5.7275   -2.0512 H   0  0  0  0  0  0  0  0  0  0  0  0
    2.5330   -4.6069    0.1042 H   0  0  0  0  0  0  0  0  0  0  0  0
  1  2  1  0
  1 27  1  6
  1 28  1  0
  1 29  1  0
  2  3  2  0
  2  4  1  0
  4  8  1  0
  4  5  1  0
  5  6  1  0
  5 30  1  1
  5 31  1  0
  6  7  1  0
  6 32  1  6
  6 33  1  0
  7  8  1  0
  7 34  1  1
  7 35  1  0
  8  9  1  6
  8 10  1  0
 10 16  2  0
 10 11  1  0
 11 12  2  0
 12 13  1  0
 12 14  1  0
 13 36  1  0
 13 37  1  0
 14 15  2  0
 15 16  1  0
 15 38  1  0
 16 17  1  0
 17 26  2  0
 17 18  1  0
 18 19  2  0
 18 39  1  0
 19 20  1  0
 19 40  1  0
 20 21  1  0
 20 25  2  0
 21 22  1  6
 21 23  1  0
 21 24  1  0
 25 26  1  0
 25 41  1  0
 26 42  1  0
M  END
$$$$
