ZINC000004694543
     RDKit          3D

 47 49  0  0  0  0  0  0  0  0999 V2000
    0.0021   -0.0041    0.0020 O   0  0  0  0  0  0  0  0  0  0  0  0
   -0.0144    1.2086    0.0087 C   0  0  0  0  0  0  0  0  0  0  0  0
    1.2803    1.9798    0.0005 C   0  0  1  0  0  0  0  0  0  0  0  0
    2.4066    1.0431   -0.0153 N   0  0  0  0  0  0  0  0  0  0  0  0
    2.8870    0.4965   -1.2868 C   0  0  1  0  0  0  0  0  0  0  0  0
    3.8806    1.4732   -1.9190 C   0  0  1  0  0  0  0  0  0  0  0  0
    4.3747    0.9110   -3.2269 C   0  0  0  0  0  0  0  0  0  0  0  0
    5.4974    0.1048   -3.2526 C   0  0  0  0  0  0  0  0  0  0  0  0
    5.9506   -0.4110   -4.4523 C   0  0  0  0  0  0  0  0  0  0  0  0
    5.2810   -0.1209   -5.6264 C   0  0  0  0  0  0  0  0  0  0  0  0
    4.1578    0.6845   -5.6006 C   0  0  0  0  0  0  0  0  0  0  0  0
    3.7020    1.1967   -4.4002 C   0  0  0  0  0  0  0  0  0  0  0  0
    3.1367    0.6021    1.4041 S   0  0  1  0  0  0  0  0  0  0  0  0
    4.4513    0.1819    1.0655 O   0  0  0  0  0  0  0  0  0  0  0  0
    2.8687    1.6430    2.3335 O   0  0  0  0  0  0  0  0  0  0  0  0
    2.2960   -0.8267    2.0012 C   0  0  0  0  0  0  0  0  0  0  0  0
    1.2047   -0.6872    2.8382 C   0  0  0  0  0  0  0  0  0  0  0  0
    0.5451   -1.8081    3.3066 C   0  0  0  0  0  0  0  0  0  0  0  0
    0.9765   -3.0685    2.9376 C   0  0  0  0  0  0  0  0  0  0  0  0
    2.0672   -3.2080    2.0999 C   0  0  0  0  0  0  0  0  0  0  0  0
    2.7242   -2.0870    1.6280 C   0  0  0  0  0  0  0  0  0  0  0  0
   -1.1906    1.8666    0.0178 N   0  0  0  0  0  0  0  0  0  0  0  0
   -2.4492    1.1169    0.0197 C   0  0  1  0  0  0  0  0  0  0  0  0
   -3.5545    1.5944    0.9639 C   0  0  1  0  0  0  0  0  0  0  0  0
   -3.6883    1.8152   -0.5442 C   0  0  1  0  0  0  0  0  0  0  0  0
    1.3211    2.6120   -0.8866 H   0  0  0  0  0  0  0  0  0  0  0  0
    1.3381    2.6024    0.8933 H   0  0  0  0  0  0  0  0  0  0  0  0
    3.3803   -0.4590   -1.1083 H   0  0  0  0  0  0  0  0  0  0  0  0
    2.0432    0.3494   -1.9610 H   0  0  0  0  0  0  0  0  0  0  0  0
    3.3872    2.4287   -2.0974 H   0  0  0  0  0  0  0  0  0  0  0  0
    4.7243    1.6203   -1.2448 H   0  0  0  0  0  0  0  0  0  0  0  0
    6.0205   -0.1218   -2.3353 H   0  0  0  0  0  0  0  0  0  0  0  0
    6.8281   -1.0402   -4.4725 H   0  0  0  0  0  0  0  0  0  0  0  0
    5.6355   -0.5233   -6.5638 H   0  0  0  0  0  0  0  0  0  0  0  0
    3.6348    0.9113   -6.5179 H   0  0  0  0  0  0  0  0  0  0  0  0
    2.8245    1.8260   -4.3801 H   0  0  0  0  0  0  0  0  0  0  0  0
    0.8677    0.2976    3.1264 H   0  0  0  0  0  0  0  0  0  0  0  0
   -0.3070   -1.6991    3.9611 H   0  0  0  0  0  0  0  0  0  0  0  0
    0.4616   -3.9442    3.3041 H   0  0  0  0  0  0  0  0  0  0  0  0
    2.4045   -4.1928    1.8119 H   0  0  0  0  0  0  0  0  0  0  0  0
    3.5763   -2.1960    0.9735 H   0  0  0  0  0  0  0  0  0  0  0  0
   -1.2037    2.8365    0.0232 H   0  0  0  0  0  0  0  0  0  0  0  0
   -2.3574    0.0435   -0.1460 H   0  0  0  0  0  0  0  0  0  0  0  0
   -4.1899    0.8350    1.4197 H   0  0  0  0  0  0  0  0  0  0  0  0
   -3.3451    2.4662    1.5836 H   0  0  0  0  0  0  0  0  0  0  0  0
   -3.5670    2.8324   -0.9165 H   0  0  0  0  0  0  0  0  0  0  0  0
   -4.4117    1.2012   -1.0805 H   0  0  0  0  0  0  0  0  0  0  0  0
  1  2  2  0
  2  3  1  0
  2 22  1  0
  3  4  1  0
  3 26  1  6
  3 27  1  0
  4  5  1  0
 13  4  1  6
  5  6  1  0
  5 28  1  1
  5 29  1  0
  6  7  1  0
  6 30  1  6
  6 31  1  0
  7 12  2  0
  7  8  1  0
  8  9  2  0
  8 32  1  0
  9 10  1  0
  9 33  1  0
 10 11  2  0
 10 34  1  0
 11 12  1  0
 11 35  1  0
 12 36  1  0
 13 14  2  0
 13 15  2  0
 13 16  1  0
 16 21  2  0
 16 17  1  0
 17 18  2  0
 17 37  1  0
 18 19  1  0
 18 38  1  0
 19 20  2  0
 19 39  1  0
 20 21  1  0
 20 40  1  0
 21 41  1  0
 22 23  1  0
 22 42  1  0
 23 25  1  0
 23 24  1  0
 23 43  1  6
 24 25  1  0
 24 44  1  1
 24 45  1  0
 25 46  1  1
 25 47  1  0
M  END
$$$$
