ZINC000024685905
     RDKit          3D

 40 41  0  0  1  0  0  0  0  0999 V2000
   -0.8469    1.3856   -1.1946 C   0  0  1  0  0  0  0  0  0  0  0  0
   -0.7589   -0.0767   -1.1797 N   0  0  0  0  0  0  0  0  0  0  0  0
    0.4424   -0.6785   -1.0736 C   0  0  0  0  0  0  0  0  0  0  0  0
    1.4505   -0.0095   -0.9906 O   0  0  0  0  0  0  0  0  0  0  0  0
    0.5328   -2.1827   -1.0583 C   0  0  2  0  0  0  0  0  0  0  0  0
   -0.4687   -2.6084   -0.9965 H   0  0  0  0  0  0  0  0  0  0  0  0
    1.3586   -2.6352    0.1500 C   0  0  1  0  0  0  0  0  0  0  0  0
    1.5642   -4.1503    0.0838 C   0  0  1  0  0  0  0  0  0  0  0  0
    2.3353   -4.5070   -1.1891 C   0  0  1  0  0  0  0  0  0  0  0  0
    1.5206   -4.0757   -2.4126 C   0  0  1  0  0  0  0  0  0  0  0  0
    1.1914   -2.6491   -2.2861 N   0  0  0  0  0  0  0  0  0  0  0  0
    1.5613   -1.5868   -3.5015 S   0  0  1  0  0  0  0  0  0  0  0  0
    1.4562   -2.3154   -4.7170 O   0  0  0  0  0  0  0  0  0  0  0  0
    0.8210   -0.4027   -3.2387 O   0  0  0  0  0  0  0  0  0  0  0  0
    3.2615   -1.1607   -3.3223 C   0  0  0  0  0  0  0  0  0  0  0  0
    3.6245   -0.0810   -2.5394 C   0  0  0  0  0  0  0  0  0  0  0  0
    4.9587    0.2534   -2.3988 C   0  0  0  0  0  0  0  0  0  0  0  0
    5.9294   -0.4923   -3.0406 C   0  0  0  0  0  0  0  0  0  0  0  0
    5.5664   -1.5729   -3.8229 C   0  0  0  0  0  0  0  0  0  0  0  0
    6.6248   -2.3856   -4.5231 C   0  0  1  0  0  0  0  0  0  0  0  0
    7.8870   -1.8575   -4.2318 F   0  0  0  0  0  0  0  0  0  0  0  0
    6.5613   -3.7121   -4.0829 F   0  0  0  0  0  0  0  0  0  0  0  0
    6.4084   -2.3419   -5.9046 F   0  0  0  0  0  0  0  0  0  0  0  0
    4.2329   -1.9098   -3.9601 C   0  0  0  0  0  0  0  0  0  0  0  0
   -0.4337    1.7839   -0.2679 H   0  0  0  0  0  0  0  0  0  0  0  0
   -0.2817    1.7750   -2.0413 H   0  0  0  0  0  0  0  0  0  0  0  0
   -1.8907    1.6859   -1.2856 H   0  0  0  0  0  0  0  0  0  0  0  0
   -1.5653   -0.6118   -1.2461 H   0  0  0  0  0  0  0  0  0  0  0  0
    2.3273   -2.1357    0.1363 H   0  0  0  0  0  0  0  0  0  0  0  0
    0.8299   -2.3796    1.0683 H   0  0  0  0  0  0  0  0  0  0  0  0
    2.1305   -4.4783    0.9554 H   0  0  0  0  0  0  0  0  0  0  0  0
    0.5946   -4.6482    0.0726 H   0  0  0  0  0  0  0  0  0  0  0  0
    3.2948   -3.9899   -1.1902 H   0  0  0  0  0  0  0  0  0  0  0  0
    2.5017   -5.5837   -1.2239 H   0  0  0  0  0  0  0  0  0  0  0  0
    2.1069   -4.2368   -3.3173 H   0  0  0  0  0  0  0  0  0  0  0  0
    0.6004   -4.6578   -2.4626 H   0  0  0  0  0  0  0  0  0  0  0  0
    2.8660    0.5017   -2.0379 H   0  0  0  0  0  0  0  0  0  0  0  0
    5.2423    1.0975   -1.7877 H   0  0  0  0  0  0  0  0  0  0  0  0
    6.9715   -0.2307   -2.9313 H   0  0  0  0  0  0  0  0  0  0  0  0
    3.9493   -2.7539   -4.5712 H   0  0  0  0  0  0  0  0  0  0  0  0
  1  2  1  0
  1 25  1  1
  1 26  1  0
  1 27  1  0
  2  3  1  0
  2 28  1  0
  3  4  2  0
  3  5  1  0
  5  6  1  1
  5 11  1  0
  5  7  1  0
  7  8  1  0
  7 29  1  1
  7 30  1  0
  8  9  1  0
  8 31  1  1
  8 32  1  0
  9 10  1  0
  9 33  1  1
  9 34  1  0
 10 11  1  0
 10 35  1  6
 10 36  1  0
 12 11  1  1
 12 13  2  0
 12 14  2  0
 12 15  1  0
 15 24  2  0
 15 16  1  0
 16 17  2  0
 16 37  1  0
 17 18  1  0
 17 38  1  0
 18 19  2  0
 18 39  1  0
 19 20  1  0
 19 24  1  0
 20 21  1  6
 20 22  1  0
 20 23  1  0
 24 40  1  0
M  END
$$$$
