ZINC000059444185
     RDKit          3D

 55 57  0  0  0  0  0  0  0  0999 V2000
    8.1253   -6.0003    6.3175 C   0  0  1  0  0  0  0  0  0  0  0  0
    7.7986   -4.6438    6.6263 O   0  0  0  0  0  0  0  0  0  0  0  0
    6.6236   -4.1650    6.1368 C   0  0  0  0  0  0  0  0  0  0  0  0
    5.8011   -4.9842    5.3811 C   0  0  0  0  0  0  0  0  0  0  0  0
    4.6065   -4.4959    4.8844 C   0  0  0  0  0  0  0  0  0  0  0  0
    4.2304   -3.1907    5.1399 C   0  0  0  0  0  0  0  0  0  0  0  0
    2.7073   -2.5742    4.5037 S   0  0  1  0  0  0  0  0  0  0  0  0
    2.8013   -1.1568    4.5407 O   0  0  0  0  0  0  0  0  0  0  0  0
    2.4444   -3.3049    3.3137 O   0  0  0  0  0  0  0  0  0  0  0  0
    1.5211   -2.9924    5.5809 N   0  0  0  0  0  0  0  0  0  0  0  0
    0.8918   -4.3130    5.5013 C   0  0  1  0  0  0  0  0  0  0  0  0
    1.5850   -5.2577    6.4489 C   0  0  0  0  0  0  0  0  0  0  0  0
    2.5134   -4.8665    7.1243 O   0  0  0  0  0  0  0  0  0  0  0  0
    1.1734   -6.5374    6.5459 N   0  0  0  0  0  0  0  0  0  0  0  0
    1.8881   -7.4445    7.3369 C   0  0  0  0  0  0  0  0  0  0  0  0
    3.2344   -7.2295    7.5980 C   0  0  0  0  0  0  0  0  0  0  0  0
    3.9371   -8.1263    8.3795 C   0  0  0  0  0  0  0  0  0  0  0  0
    3.3013   -9.2373    8.9018 C   0  0  0  0  0  0  0  0  0  0  0  0
    1.9601   -9.4555    8.6437 C   0  0  0  0  0  0  0  0  0  0  0  0
    1.2500   -8.5595    7.8676 C   0  0  0  0  0  0  0  0  0  0  0  0
   -0.4335   -8.8333    7.5443 Cl  0  0  0  0  0  0  0  0  0  0  0  0
    1.1010   -2.0419    6.6134 C   0  0  1  0  0  0  0  0  0  0  0  0
   -0.1735   -1.3629    6.1825 C   0  0  0  0  0  0  0  0  0  0  0  0
   -0.1213   -0.2519    5.3616 C   0  0  0  0  0  0  0  0  0  0  0  0
   -1.2904    0.3710    4.9663 C   0  0  0  0  0  0  0  0  0  0  0  0
   -2.5116   -0.1174    5.3916 C   0  0  0  0  0  0  0  0  0  0  0  0
   -2.5639   -1.2289    6.2118 C   0  0  0  0  0  0  0  0  0  0  0  0
   -1.3950   -1.8544    6.6036 C   0  0  0  0  0  0  0  0  0  0  0  0
    5.0467   -2.3676    5.8940 C   0  0  0  0  0  0  0  0  0  0  0  0
    6.2422   -2.8522    6.3989 C   0  0  0  0  0  0  0  0  0  0  0  0
    7.0460   -2.0441    7.1407 O   0  0  0  0  0  0  0  0  0  0  0  0
    6.5956   -0.7059    7.3604 C   0  0  1  0  0  0  0  0  0  0  0  0
    8.1873   -6.1218    5.2360 H   0  0  0  0  0  0  0  0  0  0  0  0
    9.0851   -6.2543    6.7673 H   0  0  0  0  0  0  0  0  0  0  0  0
    7.3527   -6.6593    6.7135 H   0  0  0  0  0  0  0  0  0  0  0  0
    6.0930   -6.0043    5.1794 H   0  0  0  0  0  0  0  0  0  0  0  0
    3.9662   -5.1356    4.2954 H   0  0  0  0  0  0  0  0  0  0  0  0
   -0.1602   -4.2312    5.7746 H   0  0  0  0  0  0  0  0  0  0  0  0
    0.9742   -4.6940    4.4834 H   0  0  0  0  0  0  0  0  0  0  0  0
    0.3819   -6.8299    6.0675 H   0  0  0  0  0  0  0  0  0  0  0  0
    3.7322   -6.3621    7.1903 H   0  0  0  0  0  0  0  0  0  0  0  0
    4.9846   -7.9594    8.5825 H   0  0  0  0  0  0  0  0  0  0  0  0
    3.8532   -9.9366    9.5124 H   0  0  0  0  0  0  0  0  0  0  0  0
    1.4664  -10.3245    9.0529 H   0  0  0  0  0  0  0  0  0  0  0  0
    0.9307   -2.5739    7.5494 H   0  0  0  0  0  0  0  0  0  0  0  0
    1.8805   -1.2937    6.7574 H   0  0  0  0  0  0  0  0  0  0  0  0
    0.8328    0.1297    5.0293 H   0  0  0  0  0  0  0  0  0  0  0  0
   -1.2496    1.2394    4.3255 H   0  0  0  0  0  0  0  0  0  0  0  0
   -3.4250    0.3696    5.0834 H   0  0  0  0  0  0  0  0  0  0  0  0
   -3.5180   -1.6103    6.5443 H   0  0  0  0  0  0  0  0  0  0  0  0
   -1.4358   -2.7228    7.2444 H   0  0  0  0  0  0  0  0  0  0  0  0
    4.7505   -1.3481    6.0921 H   0  0  0  0  0  0  0  0  0  0  0  0
    5.6387   -0.7257    7.8820 H   0  0  0  0  0  0  0  0  0  0  0  0
    7.3279   -0.1707    7.9649 H   0  0  0  0  0  0  0  0  0  0  0  0
    6.4766   -0.2006    6.4020 H   0  0  0  0  0  0  0  0  0  0  0  0
  1  2  1  0
  1 33  1  6
  1 34  1  0
  1 35  1  0
  2  3  1  0
  3 30  2  0
  3  4  1  0
  4  5  2  0
  4 36  1  0
  5  6  1  0
  5 37  1  0
  6  7  1  0
  6 29  2  0
  7  8  2  0
  7  9  2  0
  7 10  1  1
 10 11  1  0
 10 22  1  0
 11 12  1  0
 11 38  1  1
 11 39  1  0
 12 13  2  0
 12 14  1  0
 14 15  1  0
 14 40  1  0
 15 20  2  0
 15 16  1  0
 16 17  2  0
 16 41  1  0
 17 18  1  0
 17 42  1  0
 18 19  2  0
 18 43  1  0
 19 20  1  0
 19 44  1  0
 20 21  1  0
 22 23  1  0
 22 45  1  1
 22 46  1  0
 23 28  2  0
 23 24  1  0
 24 25  2  0
 24 47  1  0
 25 26  1  0
 25 48  1  0
 26 27  2  0
 26 49  1  0
 27 28  1  0
 27 50  1  0
 28 51  1  0
 29 30  1  0
 29 52  1  0
 30 31  1  0
 31 32  1  0
 32 53  1  1
 32 54  1  0
 32 55  1  0
M  END
$$$$
