ZINC000009365369
     RDKit          3D

 34 35  0  0  1  0  0  0  0  0999 V2000
   -2.7214   -4.8115   -1.7788 N   0  0  0  0  0  0  0  0  0  0  0  0
   -2.5661   -3.7898   -0.9136 C   0  0  0  0  0  0  0  0  0  0  0  0
   -3.2078   -3.7635    0.1152 O   0  0  0  0  0  0  0  0  0  0  0  0
   -1.5950   -2.6802   -1.2245 C   0  0  1  0  0  0  0  0  0  0  0  0
   -0.7588   -3.0712   -1.8042 H   0  0  0  0  0  0  0  0  0  0  0  0
   -2.3083   -1.5656   -2.0185 C   0  0  1  0  0  0  0  0  0  0  0  0
   -2.6734   -0.5344   -0.9181 C   0  0  1  0  0  0  0  0  0  0  0  0
   -1.4551   -0.6486    0.0318 C   0  0  1  0  0  0  0  0  0  0  0  0
   -1.1013   -2.0830    0.0250 N   0  0  0  0  0  0  0  0  0  0  0  0
   -0.2888   -2.8824    1.2263 S   0  0  1  0  0  0  0  0  0  0  0  0
   -0.5342   -2.1607    2.4256 O   0  0  0  0  0  0  0  0  0  0  0  0
   -0.5980   -4.2606    1.0715 O   0  0  0  0  0  0  0  0  0  0  0  0
    1.4330   -2.7180    0.8901 C   0  0  0  0  0  0  0  0  0  0  0  0
    2.0646   -3.6243    0.0592 C   0  0  0  0  0  0  0  0  0  0  0  0
    3.4154   -3.4953   -0.2046 C   0  0  0  0  0  0  0  0  0  0  0  0
    4.1345   -2.4597    0.3623 C   0  0  0  0  0  0  0  0  0  0  0  0
    5.6072   -2.3194    0.0752 C   0  0  1  0  0  0  0  0  0  0  0  0
    5.7874   -1.5147   -1.0549 F   0  0  0  0  0  0  0  0  0  0  0  0
    6.2424   -1.7299    1.1735 F   0  0  0  0  0  0  0  0  0  0  0  0
    6.1591   -3.5834   -0.1596 F   0  0  0  0  0  0  0  0  0  0  0  0
    3.5026   -1.5526    1.1922 C   0  0  0  0  0  0  0  0  0  0  0  0
    2.1510   -1.6793    1.4529 C   0  0  0  0  0  0  0  0  0  0  0  0
   -3.3465   -5.5257   -1.5787 H   0  0  0  0  0  0  0  0  0  0  0  0
   -2.2111   -4.8305   -2.6035 H   0  0  0  0  0  0  0  0  0  0  0  0
   -1.6349   -1.1237   -2.7529 H   0  0  0  0  0  0  0  0  0  0  0  0
   -3.2073   -1.9501   -2.5002 H   0  0  0  0  0  0  0  0  0  0  0  0
   -2.7515    0.4700   -1.3344 H   0  0  0  0  0  0  0  0  0  0  0  0
   -3.5944   -0.8168   -0.4081 H   0  0  0  0  0  0  0  0  0  0  0  0
   -0.6237   -0.0525   -0.3443 H   0  0  0  0  0  0  0  0  0  0  0  0
   -1.7273   -0.3296    1.0379 H   0  0  0  0  0  0  0  0  0  0  0  0
    1.5028   -4.4334   -0.3837 H   0  0  0  0  0  0  0  0  0  0  0  0
    3.9090   -4.2038   -0.8532 H   0  0  0  0  0  0  0  0  0  0  0  0
    4.0644   -0.7433    1.6348 H   0  0  0  0  0  0  0  0  0  0  0  0
    1.6573   -0.9706    2.1012 H   0  0  0  0  0  0  0  0  0  0  0  0
  1  2  1  0
  1 23  1  0
  1 24  1  0
  2  3  2  0
  2  4  1  0
  4  5  1  6
  4  9  1  0
  4  6  1  0
  6  7  1  0
  6 25  1  6
  6 26  1  0
  7  8  1  0
  7 27  1  6
  7 28  1  0
  8  9  1  0
  8 29  1  6
  8 30  1  0
 10  9  1  6
 10 11  2  0
 10 12  2  0
 10 13  1  0
 13 22  2  0
 13 14  1  0
 14 15  2  0
 14 31  1  0
 15 16  1  0
 15 32  1  0
 16 17  1  0
 16 21  2  0
 17 18  1  6
 17 19  1  0
 17 20  1  0
 21 22  1  0
 21 33  1  0
 22 34  1  0
M  END
$$$$
