ZINC000408702281
     RDKit          3D

 49 51  0  0  1  0  0  0  0  0999 V2000
    0.3231    1.0675    0.6360 C   0  0  1  0  0  0  0  0  0  0  0  0
   -0.1076   -0.2996    0.1007 C   0  0  2  0  0  0  0  0  0  0  0  0
   -1.1855   -0.4124    0.2177 H   0  0  0  0  0  0  0  0  0  0  0  0
    0.5977   -1.3857    0.8713 C   0  0  0  0  0  0  0  0  0  0  0  0
    1.3219   -2.1676    0.2923 O   0  0  0  0  0  0  0  0  0  0  0  0
    0.4238   -1.4883    2.2038 N   0  0  0  0  0  0  0  0  0  0  0  0
    1.1472   -2.4394    2.9329 C   0  0  0  0  0  0  0  0  0  0  0  0
    1.5189   -3.6369    2.3375 C   0  0  0  0  0  0  0  0  0  0  0  0
    2.2332   -4.5736    3.0594 C   0  0  0  0  0  0  0  0  0  0  0  0
    2.6373   -5.8735    2.4131 C   0  0  1  0  0  0  0  0  0  0  0  0
    3.8913   -5.7249    1.8108 F   0  0  0  0  0  0  0  0  0  0  0  0
    2.7031   -6.8772    3.3855 F   0  0  0  0  0  0  0  0  0  0  0  0
    1.6928   -6.2253    1.4429 F   0  0  0  0  0  0  0  0  0  0  0  0
    2.5782   -4.3197    4.3739 C   0  0  0  0  0  0  0  0  0  0  0  0
    2.2094   -3.1280    4.9712 C   0  0  0  0  0  0  0  0  0  0  0  0
    1.4998   -2.1844    4.2530 C   0  0  0  0  0  0  0  0  0  0  0  0
    1.0376   -0.6885    5.0027 Cl  0  0  0  0  0  0  0  0  0  0  0  0
    0.2428   -0.4010   -1.3181 N   0  0  0  0  0  0  0  0  0  0  0  0
    1.5680   -0.2139   -1.7265 C   0  0  0  0  0  0  0  0  0  0  0  0
    2.3103   -1.2910   -2.1913 C   0  0  0  0  0  0  0  0  0  0  0  0
    3.6198   -1.1069   -2.5927 C   0  0  0  0  0  0  0  0  0  0  0  0
    4.1962    0.1526   -2.5330 C   0  0  0  0  0  0  0  0  0  0  0  0
    5.4911    0.3130   -2.9249 O   0  0  0  0  0  0  0  0  0  0  0  0
    5.9188    1.6510   -3.2016 C   0  0  1  0  0  0  0  0  0  0  0  0
    5.4302    2.5570   -2.0633 C   0  0  1  0  0  0  0  0  0  0  0  0
    4.0016    2.4788   -2.0102 O   0  0  0  0  0  0  0  0  0  0  0  0
    3.4544    1.2340   -2.0715 C   0  0  0  0  0  0  0  0  0  0  0  0
    2.1395    1.0499   -1.6726 C   0  0  0  0  0  0  0  0  0  0  0  0
   -0.9293   -0.7371   -2.4386 S   0  0  1  0  0  0  0  0  0  0  0  0
   -1.4706    0.8903   -3.0294 C   0  0  1  0  0  0  0  0  0  0  0  0
   -0.2414   -1.4372   -3.4662 O   0  0  0  0  0  0  0  0  0  0  0  0
   -1.9611   -1.3640   -1.6891 O   0  0  0  0  0  0  0  0  0  0  0  0
    1.4062    1.1630    0.5590 H   0  0  0  0  0  0  0  0  0  0  0  0
   -0.1535    1.8536    0.0503 H   0  0  0  0  0  0  0  0  0  0  0  0
    0.0235    1.1598    1.6799 H   0  0  0  0  0  0  0  0  0  0  0  0
   -0.2026   -0.9030    2.6577 H   0  0  0  0  0  0  0  0  0  0  0  0
    1.2496   -3.8365    1.3108 H   0  0  0  0  0  0  0  0  0  0  0  0
    3.1366   -5.0538    4.9358 H   0  0  0  0  0  0  0  0  0  0  0  0
    2.4801   -2.9328    5.9983 H   0  0  0  0  0  0  0  0  0  0  0  0
    1.8642   -2.2735   -2.2388 H   0  0  0  0  0  0  0  0  0  0  0  0
    4.1956   -1.9463   -2.9535 H   0  0  0  0  0  0  0  0  0  0  0  0
    7.0069    1.6849   -3.2570 H   0  0  0  0  0  0  0  0  0  0  0  0
    5.4914    1.9855   -4.1468 H   0  0  0  0  0  0  0  0  0  0  0  0
    5.8523    2.2185   -1.1171 H   0  0  0  0  0  0  0  0  0  0  0  0
    5.7351    3.5856   -2.2556 H   0  0  0  0  0  0  0  0  0  0  0  0
    1.5612    1.8893   -1.3156 H   0  0  0  0  0  0  0  0  0  0  0  0
   -0.6673    1.3550   -3.6012 H   0  0  0  0  0  0  0  0  0  0  0  0
   -2.3481    0.7726   -3.6653 H   0  0  0  0  0  0  0  0  0  0  0  0
   -1.7218    1.5213   -2.1768 H   0  0  0  0  0  0  0  0  0  0  0  0
  1  2  1  0
  1 33  1  1
  1 34  1  0
  1 35  1  0
  2  3  1  6
  2  4  1  0
  2 18  1  0
  4  5  2  0
  4  6  1  0
  6  7  1  0
  6 36  1  0
  7 16  2  0
  7  8  1  0
  8  9  2  0
  8 37  1  0
  9 10  1  0
  9 14  1  0
 10 11  1  6
 10 12  1  0
 10 13  1  0
 14 15  2  0
 14 38  1  0
 15 16  1  0
 15 39  1  0
 16 17  1  0
 18 19  1  0
 29 18  1  1
 19 28  2  0
 19 20  1  0
 20 21  2  0
 20 40  1  0
 21 22  1  0
 21 41  1  0
 22 27  2  0
 22 23  1  0
 23 24  1  0
 24 25  1  0
 24 42  1  6
 24 43  1  0
 25 26  1  0
 25 44  1  1
 25 45  1  0
 26 27  1  0
 27 28  1  0
 28 46  1  0
 29 30  1  0
 29 31  2  0
 29 32  2  0
 30 47  1  6
 30 48  1  0
 30 49  1  0
M  END
$$$$
