ZINC000036396160
     RDKit          3D

 57 58  0  0  0  0  0  0  0  0999 V2000
    0.0206    1.5197    0.0032 C   0  0  1  0  0  0  0  0  0  0  0  0
    0.0342   -0.0102   -0.0053 C   0  0  1  0  0  0  0  0  0  0  0  0
   -1.4035   -0.5331    0.0135 C   0  0  1  0  0  0  0  0  0  0  0  0
   -1.3901   -2.0400    0.0051 C   0  0  0  0  0  0  0  0  0  0  0  0
   -1.3963   -2.7233   -1.1971 C   0  0  0  0  0  0  0  0  0  0  0  0
   -1.3841   -4.1042   -1.2084 C   0  0  0  0  0  0  0  0  0  0  0  0
   -1.3655   -4.8069   -0.0103 C   0  0  0  0  0  0  0  0  0  0  0  0
   -1.3526   -6.2036   -0.0180 N   0  0  0  0  0  0  0  0  0  0  0  0
   -1.3331   -6.9430    1.2465 C   0  0  1  0  0  0  0  0  0  0  0  0
   -1.3222   -8.4230    0.9629 C   0  0  0  0  0  0  0  0  0  0  0  0
   -1.3300   -8.8210   -0.1828 O   0  0  0  0  0  0  0  0  0  0  0  0
   -1.3037   -9.3044    1.9824 N   0  0  0  0  0  0  0  0  0  0  0  0
   -1.3914  -10.6765    1.7226 C   0  0  0  0  0  0  0  0  0  0  0  0
   -2.0771  -11.5080    2.5983 C   0  0  0  0  0  0  0  0  0  0  0  0
   -2.1618  -12.8620    2.3391 C   0  0  0  0  0  0  0  0  0  0  0  0
   -1.5644  -13.3898    1.2093 C   0  0  0  0  0  0  0  0  0  0  0  0
   -1.6743  -15.1178    0.8825 S   0  0  1  0  0  0  0  0  0  0  0  0
   -0.5725  -15.4385    0.0444 O   0  0  0  0  0  0  0  0  0  0  0  0
   -1.9083  -15.7487    2.1341 O   0  0  0  0  0  0  0  0  0  0  0  0
   -3.0382  -15.3592   -0.0252 N   0  0  0  0  0  0  0  0  0  0  0  0
   -2.9634  -15.3086   -1.4874 C   0  0  1  0  0  0  0  0  0  0  0  0
   -2.7877  -16.7251   -2.0384 C   0  0  1  0  0  0  0  0  0  0  0  0
   -4.3195  -15.6235    0.6340 C   0  0  1  0  0  0  0  0  0  0  0  0
   -5.0946  -14.3132    0.7862 C   0  0  1  0  0  0  0  0  0  0  0  0
   -0.8813  -12.5644    0.3350 C   0  0  0  0  0  0  0  0  0  0  0  0
   -0.7978  -11.2088    0.5856 C   0  0  0  0  0  0  0  0  0  0  0  0
   -1.3593   -4.1174    1.1956 C   0  0  0  0  0  0  0  0  0  0  0  0
   -1.3659   -2.7364    1.1996 C   0  0  0  0  0  0  0  0  0  0  0  0
    1.0449    1.8922   -0.0102 H   0  0  0  0  0  0  0  0  0  0  0  0
   -0.5098    1.8832   -0.8769 H   0  0  0  0  0  0  0  0  0  0  0  0
   -0.4830    1.8736    0.9028 H   0  0  0  0  0  0  0  0  0  0  0  0
    0.5378   -0.3641   -0.9049 H   0  0  0  0  0  0  0  0  0  0  0  0
    0.5646   -0.3737    0.8748 H   0  0  0  0  0  0  0  0  0  0  0  0
   -1.9071   -0.1792    0.9131 H   0  0  0  0  0  0  0  0  0  0  0  0
   -1.9339   -0.1696   -0.8666 H   0  0  0  0  0  0  0  0  0  0  0  0
   -1.4111   -2.1764   -2.1283 H   0  0  0  0  0  0  0  0  0  0  0  0
   -1.3893   -4.6372   -2.1477 H   0  0  0  0  0  0  0  0  0  0  0  0
   -1.3567   -6.6839   -0.8607 H   0  0  0  0  0  0  0  0  0  0  0  0
   -0.4398   -6.6745    1.8106 H   0  0  0  0  0  0  0  0  0  0  0  0
   -2.2196   -6.6910    1.8285 H   0  0  0  0  0  0  0  0  0  0  0  0
   -1.2297   -8.9875    2.8962 H   0  0  0  0  0  0  0  0  0  0  0  0
   -2.5434  -11.0965    3.4813 H   0  0  0  0  0  0  0  0  0  0  0  0
   -2.6950  -13.5092    3.0198 H   0  0  0  0  0  0  0  0  0  0  0  0
   -3.8822  -14.8760   -1.8834 H   0  0  0  0  0  0  0  0  0  0  0  0
   -2.1142  -14.6943   -1.7867 H   0  0  0  0  0  0  0  0  0  0  0  0
   -2.7321  -16.6874   -3.1264 H   0  0  0  0  0  0  0  0  0  0  0  0
   -1.8689  -17.1576   -1.6424 H   0  0  0  0  0  0  0  0  0  0  0  0
   -3.6370  -17.3393   -1.7391 H   0  0  0  0  0  0  0  0  0  0  0  0
   -4.9008  -16.3217    0.0317 H   0  0  0  0  0  0  0  0  0  0  0  0
   -4.1394  -16.0555    1.6184 H   0  0  0  0  0  0  0  0  0  0  0  0
   -5.2747  -13.8812   -0.1982 H   0  0  0  0  0  0  0  0  0  0  0  0
   -6.0479  -14.5098    1.2767 H   0  0  0  0  0  0  0  0  0  0  0  0
   -4.5133  -13.6150    1.3885 H   0  0  0  0  0  0  0  0  0  0  0  0
   -0.4158  -12.9797   -0.5465 H   0  0  0  0  0  0  0  0  0  0  0  0
   -0.2641  -10.5646   -0.0976 H   0  0  0  0  0  0  0  0  0  0  0  0
   -1.3453   -4.6607    2.1289 H   0  0  0  0  0  0  0  0  0  0  0  0
   -1.3611   -2.1997    2.1368 H   0  0  0  0  0  0  0  0  0  0  0  0
  1  2  1  0
  1 29  1  6
  1 30  1  0
  1 31  1  0
  2  3  1  0
  2 32  1  6
  2 33  1  0
  3  4  1  0
  3 34  1  1
  3 35  1  0
  4 28  2  0
  4  5  1  0
  5  6  2  0
  5 36  1  0
  6  7  1  0
  6 37  1  0
  7  8  1  0
  7 27  2  0
  8  9  1  0
  8 38  1  0
  9 10  1  0
  9 39  1  1
  9 40  1  0
 10 11  2  0
 10 12  1  0
 12 13  1  0
 12 41  1  0
 13 26  2  0
 13 14  1  0
 14 15  2  0
 14 42  1  0
 15 16  1  0
 15 43  1  0
 16 17  1  0
 16 25  2  0
 17 18  2  0
 17 19  2  0
 17 20  1  6
 20 21  1  0
 20 23  1  0
 21 22  1  0
 21 44  1  6
 21 45  1  0
 22 46  1  6
 22 47  1  0
 22 48  1  0
 23 24  1  0
 23 49  1  6
 23 50  1  0
 24 51  1  6
 24 52  1  0
 24 53  1  0
 25 26  1  0
 25 54  1  0
 26 55  1  0
 27 28  1  0
 27 56  1  0
 28 57  1  0
M  END
$$$$
