ZINC000001119326
     RDKit          3D

 47 48  0  0  1  0  0  0  0  0999 V2000
   -0.1465    0.9826    0.1859 C   0  0  1  0  0  0  0  0  0  0  0  0
   -0.5853   -0.2898   -0.2941 O   0  0  0  0  0  0  0  0  0  0  0  0
    0.1432   -0.8580   -1.2921 C   0  0  0  0  0  0  0  0  0  0  0  0
    1.2599   -0.2054   -1.7930 C   0  0  0  0  0  0  0  0  0  0  0  0
    2.0005   -0.7820   -2.8061 C   0  0  0  0  0  0  0  0  0  0  0  0
    1.6270   -2.0154   -3.3232 C   0  0  0  0  0  0  0  0  0  0  0  0
    2.3772   -2.6005   -4.3495 N   0  0  0  0  0  0  0  0  0  0  0  0
    3.1698   -3.8034   -4.0831 C   0  0  2  0  0  0  0  0  0  0  0  0
    3.7393   -4.0679   -4.9740 H   0  0  0  0  0  0  0  0  0  0  0  0
    2.2362   -4.9577   -3.7132 C   0  0  1  0  0  0  0  0  0  0  0  0
    4.1173   -3.5381   -2.9416 C   0  0  0  0  0  0  0  0  0  0  0  0
    4.1292   -2.4512   -2.4035 O   0  0  0  0  0  0  0  0  0  0  0  0
    4.9513   -4.5087   -2.5186 N   0  0  0  0  0  0  0  0  0  0  0  0
    5.9027   -4.2320   -1.5306 C   0  0  0  0  0  0  0  0  0  0  0  0
    7.1505   -4.8398   -1.5766 C   0  0  0  0  0  0  0  0  0  0  0  0
    8.0874   -4.5646   -0.5998 C   0  0  0  0  0  0  0  0  0  0  0  0
    7.7838   -3.6854    0.4234 C   0  0  0  0  0  0  0  0  0  0  0  0
    8.8083   -3.3879    1.4879 C   0  0  1  0  0  0  0  0  0  0  0  0
    9.5865   -2.2943    1.0934 F   0  0  0  0  0  0  0  0  0  0  0  0
    8.1583   -3.0885    2.6900 F   0  0  0  0  0  0  0  0  0  0  0  0
    9.6312   -4.5049    1.6683 F   0  0  0  0  0  0  0  0  0  0  0  0
    6.5424   -3.0783    0.4718 C   0  0  0  0  0  0  0  0  0  0  0  0
    5.6031   -3.3448   -0.5051 C   0  0  0  0  0  0  0  0  0  0  0  0
    2.3690   -1.9331   -5.8650 S   0  0  1  0  0  0  0  0  0  0  0  0
    3.7424   -0.7482   -5.8453 C   0  0  1  0  0  0  0  0  0  0  0  0
    2.6625   -3.0223   -6.7292 O   0  0  0  0  0  0  0  0  0  0  0  0
    1.1241   -1.2523   -5.9414 O   0  0  0  0  0  0  0  0  0  0  0  0
    0.5089   -2.6680   -2.8211 C   0  0  0  0  0  0  0  0  0  0  0  0
   -0.2276   -2.0925   -1.8044 C   0  0  0  0  0  0  0  0  0  0  0  0
    0.8669    0.8935    0.5773 H   0  0  0  0  0  0  0  0  0  0  0  0
   -0.1580    1.7031   -0.6319 H   0  0  0  0  0  0  0  0  0  0  0  0
   -0.8135    1.3218    0.9784 H   0  0  0  0  0  0  0  0  0  0  0  0
    1.5500    0.7540   -1.3909 H   0  0  0  0  0  0  0  0  0  0  0  0
    2.8698   -0.2735   -3.1963 H   0  0  0  0  0  0  0  0  0  0  0  0
    1.6723   -4.6964   -2.8178 H   0  0  0  0  0  0  0  0  0  0  0  0
    1.5458   -5.1445   -4.5357 H   0  0  0  0  0  0  0  0  0  0  0  0
    2.8254   -5.8548   -3.5226 H   0  0  0  0  0  0  0  0  0  0  0  0
    4.8920   -5.3989   -2.8991 H   0  0  0  0  0  0  0  0  0  0  0  0
    7.3880   -5.5271   -2.3751 H   0  0  0  0  0  0  0  0  0  0  0  0
    9.0580   -5.0370   -0.6350 H   0  0  0  0  0  0  0  0  0  0  0  0
    6.3083   -2.3921    1.2723 H   0  0  0  0  0  0  0  0  0  0  0  0
    4.6337   -2.8703   -0.4667 H   0  0  0  0  0  0  0  0  0  0  0  0
    4.6874   -1.2882   -5.7866 H   0  0  0  0  0  0  0  0  0  0  0  0
    3.7208   -0.1518   -6.7574 H   0  0  0  0  0  0  0  0  0  0  0  0
    3.6442   -0.0926   -4.9801 H   0  0  0  0  0  0  0  0  0  0  0  0
    0.2177   -3.6273   -3.2228 H   0  0  0  0  0  0  0  0  0  0  0  0
   -1.0970   -2.6001   -1.4135 H   0  0  0  0  0  0  0  0  0  0  0  0
  1  2  1  0
  1 30  1  1
  1 31  1  0
  1 32  1  0
  2  3  1  0
  3 29  2  0
  3  4  1  0
  4  5  2  0
  4 33  1  0
  5  6  1  0
  5 34  1  0
  6  7  1  0
  6 28  2  0
  7  8  1  0
 24  7  1  1
  8  9  1  6
  8 10  1  0
  8 11  1  0
 10 35  1  1
 10 36  1  0
 10 37  1  0
 11 12  2  0
 11 13  1  0
 13 14  1  0
 13 38  1  0
 14 23  2  0
 14 15  1  0
 15 16  2  0
 15 39  1  0
 16 17  1  0
 16 40  1  0
 17 18  1  0
 17 22  2  0
 18 19  1  6
 18 20  1  0
 18 21  1  0
 22 23  1  0
 22 41  1  0
 23 42  1  0
 24 25  1  0
 24 26  2  0
 24 27  2  0
 25 43  1  1
 25 44  1  0
 25 45  1  0
 28 29  1  0
 28 46  1  0
 29 47  1  0
M  END
$$$$
