ZINC000022228229
     RDKit          3D

 56 56  0  0  0  0  0  0  0  0999 V2000
   -0.0187    1.5258    0.0104 C   0  0  1  0  0  0  0  0  0  0  0  0
    0.0021   -0.0041    0.0020 C   0  0  1  0  0  0  0  0  0  0  0  0
   -1.3723   -0.5112    0.0124 N   0  0  0  0  0  0  0  0  0  0  0  0
   -2.1099   -0.6542   -1.2453 C   0  0  1  0  0  0  0  0  0  0  0  0
   -1.7727   -2.0031   -1.8836 C   0  0  1  0  0  0  0  0  0  0  0  0
   -2.0922   -0.9227    1.4458 S   0  0  1  0  0  0  0  0  0  0  0  0
   -3.1196   -1.8512    1.1269 O   0  0  0  0  0  0  0  0  0  0  0  0
   -1.0393   -1.2108    2.3555 O   0  0  0  0  0  0  0  0  0  0  0  0
   -2.8978    0.5199    2.0580 C   0  0  0  0  0  0  0  0  0  0  0  0
   -2.2156    1.3954    2.8820 C   0  0  0  0  0  0  0  0  0  0  0  0
   -2.8476    2.5271    3.3622 C   0  0  0  0  0  0  0  0  0  0  0  0
   -4.1616    2.7836    3.0181 C   0  0  0  0  0  0  0  0  0  0  0  0
   -4.8508    4.0171    3.5421 C   0  0  1  0  0  0  0  0  0  0  0  0
   -4.6371    5.1747    2.5647 C   0  0  1  0  0  0  0  0  0  0  0  0
   -5.3071    6.3739    3.0740 N   0  0  0  0  0  0  0  0  0  0  0  0
   -5.2536    7.5243    2.3740 C   0  0  0  0  0  0  0  0  0  0  0  0
   -4.6506    7.5669    1.3218 O   0  0  0  0  0  0  0  0  0  0  0  0
   -5.9371    8.7476    2.8936 C   0  0  0  0  0  0  0  0  0  0  0  0
   -6.5401    8.7051    3.9458 O   0  0  0  0  0  0  0  0  0  0  0  0
   -5.8836    9.8981    2.1936 N   0  0  0  0  0  0  0  0  0  0  0  0
   -6.5536   11.0973    2.7029 C   0  0  1  0  0  0  0  0  0  0  0  0
   -6.3399   12.2548    1.7255 C   0  0  1  0  0  0  0  0  0  0  0  0
   -7.0396   13.5072    2.2575 C   0  0  1  0  0  0  0  0  0  0  0  0
   -6.8400   14.5884    1.3446 O   0  0  0  0  0  0  0  0  0  0  0  0
   -7.4565   15.8123    1.7496 C   0  0  1  0  0  0  0  0  0  0  0  0
   -4.8434    1.9088    2.1930 C   0  0  0  0  0  0  0  0  0  0  0  0
   -4.2102    0.7790    1.7096 C   0  0  0  0  0  0  0  0  0  0  0  0
    1.0039    1.9031    0.0027 H   0  0  0  0  0  0  0  0  0  0  0  0
   -0.5459    1.8868   -0.8726 H   0  0  0  0  0  0  0  0  0  0  0  0
   -0.5289    1.8773    0.9072 H   0  0  0  0  0  0  0  0  0  0  0  0
    0.5123   -0.3556   -0.8948 H   0  0  0  0  0  0  0  0  0  0  0  0
    0.5293   -0.3651    0.8851 H   0  0  0  0  0  0  0  0  0  0  0  0
   -3.1804   -0.6037   -1.0465 H   0  0  0  0  0  0  0  0  0  0  0  0
   -1.8283    0.1500   -1.9251 H   0  0  0  0  0  0  0  0  0  0  0  0
   -0.7022   -2.0536   -2.0825 H   0  0  0  0  0  0  0  0  0  0  0  0
   -2.0544   -2.8073   -1.2038 H   0  0  0  0  0  0  0  0  0  0  0  0
   -2.3215   -2.1096   -2.8194 H   0  0  0  0  0  0  0  0  0  0  0  0
   -1.1890    1.1950    3.1509 H   0  0  0  0  0  0  0  0  0  0  0  0
   -2.3149    3.2108    4.0066 H   0  0  0  0  0  0  0  0  0  0  0  0
   -5.9180    3.8210    3.6452 H   0  0  0  0  0  0  0  0  0  0  0  0
   -4.4342    4.2808    4.5142 H   0  0  0  0  0  0  0  0  0  0  0  0
   -3.5699    5.3709    2.4615 H   0  0  0  0  0  0  0  0  0  0  0  0
   -5.0537    4.9110    1.5925 H   0  0  0  0  0  0  0  0  0  0  0  0
   -5.7891    6.3398    3.9151 H   0  0  0  0  0  0  0  0  0  0  0  0
   -5.4016    9.9321    1.3525 H   0  0  0  0  0  0  0  0  0  0  0  0
   -7.6208   10.9011    2.8061 H   0  0  0  0  0  0  0  0  0  0  0  0
   -6.1370   11.3610    3.6750 H   0  0  0  0  0  0  0  0  0  0  0  0
   -5.2727   12.4510    1.6224 H   0  0  0  0  0  0  0  0  0  0  0  0
   -6.7565   11.9911    0.7534 H   0  0  0  0  0  0  0  0  0  0  0  0
   -8.1068   13.3110    2.3606 H   0  0  0  0  0  0  0  0  0  0  0  0
   -6.6230   13.7709    3.2296 H   0  0  0  0  0  0  0  0  0  0  0  0
   -7.0486   16.1238    2.7112 H   0  0  0  0  0  0  0  0  0  0  0  0
   -7.2588   16.5827    1.0043 H   0  0  0  0  0  0  0  0  0  0  0  0
   -8.5324   15.6639    1.8422 H   0  0  0  0  0  0  0  0  0  0  0  0
   -5.8699    2.1094    1.9238 H   0  0  0  0  0  0  0  0  0  0  0  0
   -4.7428    0.0956    1.0650 H   0  0  0  0  0  0  0  0  0  0  0  0
  1  2  1  0
  1 28  1  6
  1 29  1  0
  1 30  1  0
  2  3  1  0
  2 31  1  6
  2 32  1  0
  3  4  1  0
  6  3  1  6
  4  5  1  0
  4 33  1  1
  4 34  1  0
  5 35  1  6
  5 36  1  0
  5 37  1  0
  6  7  2  0
  6  8  2  0
  6  9  1  0
  9 27  2  0
  9 10  1  0
 10 11  2  0
 10 38  1  0
 11 12  1  0
 11 39  1  0
 12 13  1  0
 12 26  2  0
 13 14  1  0
 13 40  1  1
 13 41  1  0
 14 15  1  0
 14 42  1  6
 14 43  1  0
 15 16  1  0
 15 44  1  0
 16 17  2  0
 16 18  1  0
 18 19  2  0
 18 20  1  0
 20 21  1  0
 20 45  1  0
 21 22  1  0
 21 46  1  1
 21 47  1  0
 22 23  1  0
 22 48  1  6
 22 49  1  0
 23 24  1  0
 23 50  1  1
 23 51  1  0
 24 25  1  0
 25 52  1  1
 25 53  1  0
 25 54  1  0
 26 27  1  0
 26 55  1  0
 27 56  1  0
M  END
$$$$
