ZINC000408609486
     RDKit          3D

 49 49  0  0  1  0  0  0  0  0999 V2000
   -0.0187    1.5258    0.0104 C   0  0  1  0  0  0  0  0  0  0  0  0
    0.0021   -0.0041    0.0020 C   0  0  1  0  0  0  0  0  0  0  0  0
    0.7421   -0.5109    1.2415 C   0  0  1  0  0  0  0  0  0  0  0  0
    0.2852   -0.0874    2.1360 H   0  0  0  0  0  0  0  0  0  0  0  0
    0.6554   -2.0374    1.2986 C   0  0  1  0  0  0  0  0  0  0  0  0
    2.1476   -0.1038    1.1716 N   0  0  0  0  0  0  0  0  0  0  0  0
    2.8685    0.0265    2.3029 C   0  0  0  0  0  0  0  0  0  0  0  0
    2.3536   -0.1931    3.3788 O   0  0  0  0  0  0  0  0  0  0  0  0
    4.3144    0.4453    2.2310 C   0  0  1  0  0  0  0  0  0  0  0  0
    4.8572    0.5120    3.5512 O   0  0  0  0  0  0  0  0  0  0  0  0
    6.1612    0.8777    3.6644 C   0  0  0  0  0  0  0  0  0  0  0  0
    6.9014    1.1719    2.5286 C   0  0  0  0  0  0  0  0  0  0  0  0
    8.2266    1.5438    2.6463 C   0  0  0  0  0  0  0  0  0  0  0  0
    8.8155    1.6225    3.8948 C   0  0  0  0  0  0  0  0  0  0  0  0
   10.5061    2.0967    4.0416 S   0  0  1  0  0  0  0  0  0  0  0  0
   10.9643    1.5709    5.2797 O   0  0  0  0  0  0  0  0  0  0  0  0
   11.1174    1.7942    2.7950 O   0  0  0  0  0  0  0  0  0  0  0  0
   10.5416    3.7455    4.1919 N   0  0  0  0  0  0  0  0  0  0  0  0
   10.4795    4.3615    5.5197 C   0  0  1  0  0  0  0  0  0  0  0  0
   11.8981    4.6514    6.0142 C   0  0  1  0  0  0  0  0  0  0  0  0
   10.6349    4.5881    2.9971 C   0  0  1  0  0  0  0  0  0  0  0  0
    9.2319    5.0228    2.5687 C   0  0  1  0  0  0  0  0  0  0  0  0
    8.0797    1.3303    5.0284 C   0  0  0  0  0  0  0  0  0  0  0  0
    6.7527    0.9629    4.9164 C   0  0  0  0  0  0  0  0  0  0  0  0
    1.0039    1.9031    0.0027 H   0  0  0  0  0  0  0  0  0  0  0  0
   -0.5459    1.8868   -0.8726 H   0  0  0  0  0  0  0  0  0  0  0  0
   -0.5289    1.8773    0.9072 H   0  0  0  0  0  0  0  0  0  0  0  0
   -1.0205   -0.3814    0.0098 H   0  0  0  0  0  0  0  0  0  0  0  0
    0.5123   -0.3556   -0.8948 H   0  0  0  0  0  0  0  0  0  0  0  0
    1.1826   -2.3985    2.1817 H   0  0  0  0  0  0  0  0  0  0  0  0
   -0.3904   -2.3402    1.3506 H   0  0  0  0  0  0  0  0  0  0  0  0
    1.1123   -2.4609    0.4042 H   0  0  0  0  0  0  0  0  0  0  0  0
    2.5595    0.0718    0.3111 H   0  0  0  0  0  0  0  0  0  0  0  0
    4.8747   -0.2826    1.6441 H   0  0  0  0  0  0  0  0  0  0  0  0
    4.3858    1.4251    1.7588 H   0  0  0  0  0  0  0  0  0  0  0  0
    6.4421    1.1099    1.5531 H   0  0  0  0  0  0  0  0  0  0  0  0
    8.8033    1.7730    1.7624 H   0  0  0  0  0  0  0  0  0  0  0  0
    9.9173    5.2935    5.4619 H   0  0  0  0  0  0  0  0  0  0  0  0
    9.9850    3.6812    6.2130 H   0  0  0  0  0  0  0  0  0  0  0  0
   12.4603    3.7193    6.0719 H   0  0  0  0  0  0  0  0  0  0  0  0
   12.3926    5.3316    5.3208 H   0  0  0  0  0  0  0  0  0  0  0  0
   11.8519    5.1097    7.0020 H   0  0  0  0  0  0  0  0  0  0  0  0
   11.2361    5.4695    3.2202 H   0  0  0  0  0  0  0  0  0  0  0  0
   11.1027    4.0239    2.1903 H   0  0  0  0  0  0  0  0  0  0  0  0
    9.3014    5.6497    1.6797 H   0  0  0  0  0  0  0  0  0  0  0  0
    8.6308    4.1413    2.3456 H   0  0  0  0  0  0  0  0  0  0  0  0
    8.7641    5.5869    3.3755 H   0  0  0  0  0  0  0  0  0  0  0  0
    8.5419    1.3928    6.0026 H   0  0  0  0  0  0  0  0  0  0  0  0
    6.1785    0.7347    5.8021 H   0  0  0  0  0  0  0  0  0  0  0  0
  1  2  1  0
  1 25  1  6
  1 26  1  0
  1 27  1  0
  2  3  1  0
  2 28  1  1
  2 29  1  0
  3  4  1  1
  3  5  1  0
  3  6  1  0
  5 30  1  1
  5 31  1  0
  5 32  1  0
  6  7  1  0
  6 33  1  0
  7  8  2  0
  7  9  1  0
  9 10  1  0
  9 34  1  6
  9 35  1  0
 10 11  1  0
 11 24  2  0
 11 12  1  0
 12 13  2  0
 12 36  1  0
 13 14  1  0
 13 37  1  0
 14 15  1  0
 14 23  2  0
 15 16  2  0
 15 17  2  0
 15 18  1  1
 18 19  1  0
 18 21  1  0
 19 20  1  0
 19 38  1  6
 19 39  1  0
 20 40  1  1
 20 41  1  0
 20 42  1  0
 21 22  1  0
 21 43  1  1
 21 44  1  0
 22 45  1  6
 22 46  1  0
 22 47  1  0
 23 24  1  0
 23 48  1  0
 24 49  1  0
M  END
$$$$
