ZINC000028208416
     RDKit          3D

 48 48  0  0  1  0  0  0  0  0999 V2000
   -0.0187    1.5258    0.0104 C   0  0  1  0  0  0  0  0  0  0  0  0
    0.0021   -0.0041    0.0020 C   0  0  1  0  0  0  0  0  0  0  0  0
   -1.4333   -0.5336    0.0129 C   0  0  1  0  0  0  0  0  0  0  0  0
   -1.4126   -2.0635    0.0045 C   0  0  2  0  0  0  0  0  0  0  0  0
   -0.8263   -2.4142   -0.8449 H   0  0  0  0  0  0  0  0  0  0  0  0
   -2.8437   -2.5923   -0.1104 C   0  0  1  0  0  0  0  0  0  0  0  0
   -0.8103   -2.5505    1.2480 N   0  0  0  0  0  0  0  0  0  0  0  0
   -0.2268   -3.7649    1.2837 C   0  0  0  0  0  0  0  0  0  0  0  0
   -0.2003   -4.4545    0.2863 O   0  0  0  0  0  0  0  0  0  0  0  0
    0.3926   -4.2659    2.5628 C   0  0  1  0  0  0  0  0  0  0  0  0
    0.9811   -5.6594    2.3329 C   0  0  1  0  0  0  0  0  0  0  0  0
    1.6005   -6.1604    3.6121 C   0  0  0  0  0  0  0  0  0  0  0  0
    2.9282   -5.8924    3.8883 C   0  0  0  0  0  0  0  0  0  0  0  0
    3.4965   -6.3520    5.0617 C   0  0  0  0  0  0  0  0  0  0  0  0
    2.7369   -7.0792    5.9590 C   0  0  0  0  0  0  0  0  0  0  0  0
    3.4614   -7.6655    7.4543 S   0  0  1  0  0  0  0  0  0  0  0  0
    2.6817   -8.7790    7.8683 O   0  0  0  0  0  0  0  0  0  0  0  0
    4.8608   -7.7409    7.2196 O   0  0  0  0  0  0  0  0  0  0  0  0
    3.2420   -6.4894    8.5993 N   0  0  0  0  0  0  0  0  0  0  0  0
    2.0389   -6.4961    9.4351 C   0  0  1  0  0  0  0  0  0  0  0  0
    4.2511   -5.4423    8.7765 C   0  0  1  0  0  0  0  0  0  0  0  0
    1.4089   -7.3460    5.6834 C   0  0  0  0  0  0  0  0  0  0  0  0
    0.8396   -6.8832    4.5118 C   0  0  0  0  0  0  0  0  0  0  0  0
    1.0039    1.9031    0.0027 H   0  0  0  0  0  0  0  0  0  0  0  0
   -0.5459    1.8868   -0.8726 H   0  0  0  0  0  0  0  0  0  0  0  0
   -0.5289    1.8773    0.9072 H   0  0  0  0  0  0  0  0  0  0  0  0
    0.5123   -0.3556   -0.8948 H   0  0  0  0  0  0  0  0  0  0  0  0
    0.5293   -0.3651    0.8851 H   0  0  0  0  0  0  0  0  0  0  0  0
   -1.9435   -0.1821    0.9097 H   0  0  0  0  0  0  0  0  0  0  0  0
   -1.9605   -0.1726   -0.8702 H   0  0  0  0  0  0  0  0  0  0  0  0
   -3.2917   -2.2299   -1.0357 H   0  0  0  0  0  0  0  0  0  0  0  0
   -2.8289   -3.6822   -0.1164 H   0  0  0  0  0  0  0  0  0  0  0  0
   -3.4299   -2.2416    0.7389 H   0  0  0  0  0  0  0  0  0  0  0  0
   -0.8315   -1.9990    2.0457 H   0  0  0  0  0  0  0  0  0  0  0  0
    1.1840   -3.5843    2.8746 H   0  0  0  0  0  0  0  0  0  0  0  0
   -0.3698   -4.3172    3.3401 H   0  0  0  0  0  0  0  0  0  0  0  0
    0.1897   -6.3411    2.0211 H   0  0  0  0  0  0  0  0  0  0  0  0
    1.7436   -5.6081    1.5557 H   0  0  0  0  0  0  0  0  0  0  0  0
    3.5217   -5.3243    3.1873 H   0  0  0  0  0  0  0  0  0  0  0  0
    4.5340   -6.1432    5.2772 H   0  0  0  0  0  0  0  0  0  0  0  0
    2.2250   -7.0820   10.3353 H   0  0  0  0  0  0  0  0  0  0  0  0
    1.7840   -5.4735    9.7134 H   0  0  0  0  0  0  0  0  0  0  0  0
    1.2123   -6.9379    8.8786 H   0  0  0  0  0  0  0  0  0  0  0  0
    4.0169   -4.5984    8.1276 H   0  0  0  0  0  0  0  0  0  0  0  0
    4.2536   -5.1121    9.8153 H   0  0  0  0  0  0  0  0  0  0  0  0
    5.2338   -5.8372    8.5184 H   0  0  0  0  0  0  0  0  0  0  0  0
    0.8153   -7.9139    6.3846 H   0  0  0  0  0  0  0  0  0  0  0  0
   -0.1980   -7.0916    4.2964 H   0  0  0  0  0  0  0  0  0  0  0  0
  1  2  1  0
  1 24  1  6
  1 25  1  0
  1 26  1  0
  2  3  1  0
  2 27  1  6
  2 28  1  0
  3  4  1  0
  3 29  1  1
  3 30  1  0
  4  5  1  6
  4  6  1  0
  4  7  1  0
  6 31  1  6
  6 32  1  0
  6 33  1  0
  7  8  1  0
  7 34  1  0
  8  9  2  0
  8 10  1  0
 10 11  1  0
 10 35  1  1
 10 36  1  0
 11 12  1  0
 11 37  1  6
 11 38  1  0
 12 23  2  0
 12 13  1  0
 13 14  2  0
 13 39  1  0
 14 15  1  0
 14 40  1  0
 15 16  1  0
 15 22  2  0
 16 17  2  0
 16 18  2  0
 16 19  1  1
 19 20  1  0
 19 21  1  0
 20 41  1  1
 20 42  1  0
 20 43  1  0
 21 44  1  6
 21 45  1  0
 21 46  1  0
 22 23  1  0
 22 47  1  0
 23 48  1  0
M  END
$$$$
