ZINC000027953947
     RDKit          3D

 43 44  0  0  0  0  0  0  0  0999 V2000
   -0.0178    1.4608    0.0101 C   0  0  1  0  0  0  0  0  0  0  0  0
    0.0021   -0.0041    0.0020 N   0  0  0  0  0  0  0  0  0  0  0  0
    0.0241   -0.7433    1.2666 C   0  0  1  0  0  0  0  0  0  0  0  0
   -0.0004   -0.8243   -1.4366 S   0  0  1  0  0  0  0  0  0  0  0  0
   -0.5247   -2.1160   -1.1611 O   0  0  0  0  0  0  0  0  0  0  0  0
   -0.5660    0.0551   -2.3989 O   0  0  0  0  0  0  0  0  0  0  0  0
    1.5805   -1.0455   -1.8774 N   0  0  0  0  0  0  0  0  0  0  0  0
    2.2754   -0.0437   -2.6979 C   0  0  1  0  0  0  0  0  0  0  0  0
    3.5494    0.3926   -1.9639 C   0  0  1  0  0  0  0  0  0  0  0  0
    4.2827   -0.8089   -1.5412 N   0  0  0  0  0  0  0  0  0  0  0  0
    5.8638   -1.0296   -1.9811 S   0  0  1  0  0  0  0  0  0  0  0  0
    6.1042   -2.4290   -1.9255 O   0  0  0  0  0  0  0  0  0  0  0  0
    6.0665   -0.2522   -3.1532 O   0  0  0  0  0  0  0  0  0  0  0  0
    6.8614   -0.3031   -0.7235 C   0  0  0  0  0  0  0  0  0  0  0  0
    7.2300    1.0261   -0.8153 C   0  0  0  0  0  0  0  0  0  0  0  0
    8.0126    1.5960    0.1714 C   0  0  0  0  0  0  0  0  0  0  0  0
    8.4263    0.8370    1.2501 C   0  0  0  0  0  0  0  0  0  0  0  0
    9.2799    1.4583    2.3255 C   0  0  1  0  0  0  0  0  0  0  0  0
    8.4573    1.9985    3.3198 F   0  0  0  0  0  0  0  0  0  0  0  0
   10.1086    0.4804    2.8861 F   0  0  0  0  0  0  0  0  0  0  0  0
   10.0662    2.4726    1.7688 F   0  0  0  0  0  0  0  0  0  0  0  0
    8.0566   -0.4918    1.3426 C   0  0  0  0  0  0  0  0  0  0  0  0
    7.2708   -1.0607    0.3579 C   0  0  0  0  0  0  0  0  0  0  0  0
    3.5877   -1.8107   -0.7207 C   0  0  1  0  0  0  0  0  0  0  0  0
    2.3154   -2.2443   -1.4501 C   0  0  1  0  0  0  0  0  0  0  0  0
    1.0048    1.8381    0.0023 H   0  0  0  0  0  0  0  0  0  0  0  0
   -0.5450    1.8219   -0.8730 H   0  0  0  0  0  0  0  0  0  0  0  0
   -0.5280    1.8123    0.9069 H   0  0  0  0  0  0  0  0  0  0  0  0
   -0.9979   -0.9406    1.5900 H   0  0  0  0  0  0  0  0  0  0  0  0
    0.5496   -1.6879    1.1262 H   0  0  0  0  0  0  0  0  0  0  0  0
    0.5371   -0.1514    2.0246 H   0  0  0  0  0  0  0  0  0  0  0  0
    2.5394   -0.4793   -3.6615 H   0  0  0  0  0  0  0  0  0  0  0  0
    1.6267    0.8191   -2.8491 H   0  0  0  0  0  0  0  0  0  0  0  0
    4.1729    0.9849   -2.6336 H   0  0  0  0  0  0  0  0  0  0  0  0
    3.2827    0.9851   -1.0887 H   0  0  0  0  0  0  0  0  0  0  0  0
    6.9068    1.6191   -1.6581 H   0  0  0  0  0  0  0  0  0  0  0  0
    8.3011    2.6343    0.0993 H   0  0  0  0  0  0  0  0  0  0  0  0
    8.3795   -1.0847    2.1856 H   0  0  0  0  0  0  0  0  0  0  0  0
    6.9819   -2.0989    0.4302 H   0  0  0  0  0  0  0  0  0  0  0  0
    4.2364   -2.6735   -0.5695 H   0  0  0  0  0  0  0  0  0  0  0  0
    3.3237   -1.3751    0.2429 H   0  0  0  0  0  0  0  0  0  0  0  0
    1.6930   -2.8365   -0.7792 H   0  0  0  0  0  0  0  0  0  0  0  0
    2.5797   -2.8366   -2.3261 H   0  0  0  0  0  0  0  0  0  0  0  0
  1  2  1  0
  1 26  1  6
  1 27  1  0
  1 28  1  0
  2  3  1  0
  4  2  1  1
  3 29  1  1
  3 30  1  0
  3 31  1  0
  4  5  2  0
  4  6  2  0
  4  7  1  0
  7 25  1  0
  7  8  1  0
  8  9  1  0
  8 32  1  6
  8 33  1  0
  9 10  1  0
  9 34  1  6
  9 35  1  0
 11 10  1  1
 10 24  1  0
 11 12  2  0
 11 13  2  0
 11 14  1  0
 14 23  2  0
 14 15  1  0
 15 16  2  0
 15 36  1  0
 16 17  1  0
 16 37  1  0
 17 18  1  0
 17 22  2  0
 18 19  1  1
 18 20  1  0
 18 21  1  0
 22 23  1  0
 22 38  1  0
 23 39  1  0
 24 25  1  0
 24 40  1  1
 24 41  1  0
 25 42  1  1
 25 43  1  0
M  END
$$$$
