ZINC000072395560
     RDKit          3D

 47 50  0  0  1  0  0  0  0  0999 V2000
   -0.0187    1.5258    0.0104 C   0  0  1  0  0  0  0  0  0  0  0  0
    0.0021   -0.0041    0.0020 C   0  0  2  0  0  0  0  0  0  0  0  0
   -1.4153   -0.6406    0.1098 C   0  0  1  0  0  0  0  0  0  0  0  0
   -1.3663   -1.6314    1.2027 N   0  0  0  0  0  0  0  0  0  0  0  0
   -2.6487   -2.2296    2.0629 S   0  0  1  0  0  0  0  0  0  0  0  0
   -2.1237   -2.6823    3.3034 O   0  0  0  0  0  0  0  0  0  0  0  0
   -3.6846   -1.2619    1.9641 O   0  0  0  0  0  0  0  0  0  0  0  0
   -3.2236   -3.6623    1.2135 C   0  0  0  0  0  0  0  0  0  0  0  0
   -4.1925   -3.5434    0.2351 C   0  0  0  0  0  0  0  0  0  0  0  0
   -4.6436   -4.6675   -0.4314 C   0  0  0  0  0  0  0  0  0  0  0  0
   -4.1253   -5.9103   -0.1196 C   0  0  0  0  0  0  0  0  0  0  0  0
   -3.1555   -6.0292    0.8585 C   0  0  0  0  0  0  0  0  0  0  0  0
   -2.5907   -7.3843    1.1989 C   0  0  1  0  0  0  0  0  0  0  0  0
   -3.1990   -8.3574    0.3987 F   0  0  0  0  0  0  0  0  0  0  0  0
   -1.2110   -7.3860    0.9674 F   0  0  0  0  0  0  0  0  0  0  0  0
   -2.8379   -7.6675    2.5464 F   0  0  0  0  0  0  0  0  0  0  0  0
   -2.7014   -4.9048    1.5218 C   0  0  0  0  0  0  0  0  0  0  0  0
    0.0700   -1.9843    1.3747 C   0  0  1  0  0  0  0  0  0  0  0  0
    0.7327   -0.6077    1.2229 C   0  0  1  0  0  0  0  0  0  0  0  0
    0.5126   -0.0057    2.1045 H   0  0  0  0  0  0  0  0  0  0  0  0
    2.1659   -0.6399    1.0132 N   0  0  0  0  0  0  0  0  0  0  0  0
    2.7546   -1.5891    0.2450 C   0  0  0  0  0  0  0  0  0  0  0  0
    3.9665   -1.6606    0.1897 O   0  0  0  0  0  0  0  0  0  0  0  0
    1.9235   -2.5360   -0.5240 C   0  0  0  0  0  0  0  0  0  0  0  0
    2.1690   -3.9007   -0.5009 C   0  0  0  0  0  0  0  0  0  0  0  0
    1.3866   -4.7538   -1.2608 C   0  0  0  0  0  0  0  0  0  0  0  0
    0.3626   -4.2549   -2.0460 C   0  0  0  0  0  0  0  0  0  0  0  0
    0.0949   -2.8981   -2.0736 C   0  0  0  0  0  0  0  0  0  0  0  0
    0.8597   -2.0268   -1.3042 C   0  0  0  0  0  0  0  0  0  0  0  0
    0.6033   -0.5831   -1.2658 C   0  0  0  0  0  0  0  0  0  0  0  0
    0.8399    0.1124   -2.2302 O   0  0  0  0  0  0  0  0  0  0  0  0
    1.0039    1.9031    0.0027 H   0  0  0  0  0  0  0  0  0  0  0  0
   -0.5459    1.8868   -0.8726 H   0  0  0  0  0  0  0  0  0  0  0  0
   -0.5289    1.8773    0.9072 H   0  0  0  0  0  0  0  0  0  0  0  0
   -2.1513    0.1297    0.3401 H   0  0  0  0  0  0  0  0  0  0  0  0
   -1.6724   -1.1344   -0.8273 H   0  0  0  0  0  0  0  0  0  0  0  0
   -4.5975   -2.5723   -0.0086 H   0  0  0  0  0  0  0  0  0  0  0  0
   -5.4012   -4.5746   -1.1955 H   0  0  0  0  0  0  0  0  0  0  0  0
   -4.4782   -6.7886   -0.6397 H   0  0  0  0  0  0  0  0  0  0  0  0
   -1.9438   -4.9977    2.2859 H   0  0  0  0  0  0  0  0  0  0  0  0
    0.2556   -2.4021    2.3641 H   0  0  0  0  0  0  0  0  0  0  0  0
    0.4022   -2.6679    0.5934 H   0  0  0  0  0  0  0  0  0  0  0  0
    2.7194    0.0365    1.4339 H   0  0  0  0  0  0  0  0  0  0  0  0
    2.9683   -4.2970    0.1077 H   0  0  0  0  0  0  0  0  0  0  0  0
    1.5769   -5.8167   -1.2401 H   0  0  0  0  0  0  0  0  0  0  0  0
   -0.2324   -4.9303   -2.6427 H   0  0  0  0  0  0  0  0  0  0  0  0
   -0.7050   -2.5162   -2.6906 H   0  0  0  0  0  0  0  0  0  0  0  0
  1 32  1  6
  1 33  1  0
  1 34  1  0
  2  1  1  0
  2 19  1  0
  2 30  1  6
  2  3  1  0
  3  4  1  0
  3 35  1  1
  3 36  1  0
  5  4  1  6
  4 18  1  0
  5  6  2  0
  5  7  2  0
  5  8  1  0
  8 17  2  0
  8  9  1  0
  9 10  2  0
  9 37  1  0
 10 11  1  0
 10 38  1  0
 11 12  2  0
 11 39  1  0
 12 13  1  0
 12 17  1  0
 13 14  1  6
 13 15  1  0
 13 16  1  0
 17 40  1  0
 18 19  1  0
 18 41  1  1
 18 42  1  0
 19 20  1  1
 19 21  1  0
 21 22  1  0
 21 43  1  0
 22 23  2  0
 22 24  1  0
 24 29  2  0
 24 25  1  0
 25 26  2  0
 25 44  1  0
 26 27  1  0
 26 45  1  0
 27 28  2  0
 27 46  1  0
 28 29  1  0
 28 47  1  0
 29 30  1  0
 30 31  2  0
M  END
$$$$
