ZINC000001703578
     RDKit          3D

 56 57  0  0  0  0  0  0  0  0999 V2000
   -0.2414    1.7506   -0.6487 C   0  0  1  0  0  0  0  0  0  0  0  0
   -0.1409    0.2370   -0.4493 C   0  0  1  0  0  0  0  0  0  0  0  0
   -1.5465   -0.3574   -0.3402 C   0  0  1  0  0  0  0  0  0  0  0  0
   -1.4504   -1.8067   -0.1492 N   0  0  0  0  0  0  0  0  0  0  0  0
   -1.2652   -2.3577    1.1955 C   0  0  1  0  0  0  0  0  0  0  0  0
   -2.6266   -2.5059    1.8778 C   0  0  1  0  0  0  0  0  0  0  0  0
   -2.4333   -3.0813    3.2822 C   0  0  1  0  0  0  0  0  0  0  0  0
   -1.5509   -2.8222   -1.4535 S   0  0  1  0  0  0  0  0  0  0  0  0
   -1.9768   -4.0809   -0.9501 O   0  0  0  0  0  0  0  0  0  0  0  0
   -2.2539   -2.1106   -2.4628 O   0  0  0  0  0  0  0  0  0  0  0  0
    0.0870   -3.0569   -2.0593 C   0  0  0  0  0  0  0  0  0  0  0  0
    0.5975   -2.2007   -3.0176 C   0  0  0  0  0  0  0  0  0  0  0  0
    1.8808   -2.3823   -3.4948 C   0  0  0  0  0  0  0  0  0  0  0  0
    2.6587   -3.4258   -3.0108 C   0  0  0  0  0  0  0  0  0  0  0  0
    3.9597   -3.6122   -3.4919 N   0  0  0  0  0  0  0  0  0  0  0  0
    4.7049   -2.5477   -3.8495 C   0  0  0  0  0  0  0  0  0  0  0  0
    4.2853   -1.4225   -3.6643 O   0  0  0  0  0  0  0  0  0  0  0  0
    5.9145   -2.7311   -4.4119 O   0  0  0  0  0  0  0  0  0  0  0  0
    6.6618   -1.5392   -4.7716 C   0  0  1  0  0  0  0  0  0  0  0  0
    7.5339   -1.1083   -3.5907 C   0  0  1  0  0  0  0  0  0  0  0  0
    8.3213    0.1476   -3.9697 C   0  0  1  0  0  0  0  0  0  0  0  0
    9.2108   -0.1533   -5.1776 C   0  0  1  0  0  0  0  0  0  0  0  0
    8.3387   -0.5842   -6.3585 C   0  0  1  0  0  0  0  0  0  0  0  0
    7.5513   -1.8401   -5.9795 C   0  0  1  0  0  0  0  0  0  0  0  0
    2.1433   -4.2836   -2.0481 C   0  0  0  0  0  0  0  0  0  0  0  0
    0.8611   -4.0935   -1.5712 C   0  0  0  0  0  0  0  0  0  0  0  0
    0.7600    2.1741   -0.7264 H   0  0  0  0  0  0  0  0  0  0  0  0
   -0.7966    1.9606   -1.5628 H   0  0  0  0  0  0  0  0  0  0  0  0
   -0.7590    2.1955    0.2012 H   0  0  0  0  0  0  0  0  0  0  0  0
    0.3767   -0.2079   -1.2991 H   0  0  0  0  0  0  0  0  0  0  0  0
    0.4143    0.0270    0.4649 H   0  0  0  0  0  0  0  0  0  0  0  0
   -2.0642    0.0875    0.5097 H   0  0  0  0  0  0  0  0  0  0  0  0
   -2.1018   -0.1474   -1.2543 H   0  0  0  0  0  0  0  0  0  0  0  0
   -0.7859   -3.3341    1.1253 H   0  0  0  0  0  0  0  0  0  0  0  0
   -0.6370   -1.6857    1.7802 H   0  0  0  0  0  0  0  0  0  0  0  0
   -3.1060   -1.5295    1.9481 H   0  0  0  0  0  0  0  0  0  0  0  0
   -3.2549   -3.1779    1.2931 H   0  0  0  0  0  0  0  0  0  0  0  0
   -3.4032   -3.1869    3.7683 H   0  0  0  0  0  0  0  0  0  0  0  0
   -1.9539   -4.0577    3.2120 H   0  0  0  0  0  0  0  0  0  0  0  0
   -1.8051   -2.4093    3.8669 H   0  0  0  0  0  0  0  0  0  0  0  0
   -0.0081   -1.3893   -3.3936 H   0  0  0  0  0  0  0  0  0  0  0  0
    2.2787   -1.7137   -4.2438 H   0  0  0  0  0  0  0  0  0  0  0  0
    4.3250   -4.5076   -3.5680 H   0  0  0  0  0  0  0  0  0  0  0  0
    5.9676   -0.7370   -5.0224 H   0  0  0  0  0  0  0  0  0  0  0  0
    6.9002   -0.8940   -2.7301 H   0  0  0  0  0  0  0  0  0  0  0  0
    8.2281   -1.9105   -3.3399 H   0  0  0  0  0  0  0  0  0  0  0  0
    7.6272    0.9497   -4.2204 H   0  0  0  0  0  0  0  0  0  0  0  0
    8.9427    0.4545   -3.1284 H   0  0  0  0  0  0  0  0  0  0  0  0
    9.7718    0.7414   -5.4476 H   0  0  0  0  0  0  0  0  0  0  0  0
    9.9050   -0.9555   -4.9269 H   0  0  0  0  0  0  0  0  0  0  0  0
    7.6445    0.2180   -6.6093 H   0  0  0  0  0  0  0  0  0  0  0  0
    8.9724   -0.7985   -7.2191 H   0  0  0  0  0  0  0  0  0  0  0  0
    8.2454   -2.6422   -5.7288 H   0  0  0  0  0  0  0  0  0  0  0  0
    6.9299   -2.1470   -6.8209 H   0  0  0  0  0  0  0  0  0  0  0  0
    2.7459   -5.0961   -1.6697 H   0  0  0  0  0  0  0  0  0  0  0  0
    0.4598   -4.7601   -0.8222 H   0  0  0  0  0  0  0  0  0  0  0  0
  1  2  1  0
  1 27  1  6
  1 28  1  0
  1 29  1  0
  2  3  1  0
  2 30  1  6
  2 31  1  0
  3  4  1  0
  3 32  1  1
  3 33  1  0
  4  5  1  0
  8  4  1  1
  5  6  1  0
  5 34  1  6
  5 35  1  0
  6  7  1  0
  6 36  1  1
  6 37  1  0
  7 38  1  1
  7 39  1  0
  7 40  1  0
  8  9  2  0
  8 10  2  0
  8 11  1  0
 11 26  2  0
 11 12  1  0
 12 13  2  0
 12 41  1  0
 13 14  1  0
 13 42  1  0
 14 15  1  0
 14 25  2  0
 15 16  1  0
 15 43  1  0
 16 17  2  0
 16 18  1  0
 18 19  1  0
 19 24  1  0
 19 20  1  0
 19 44  1  6
 20 21  1  0
 20 45  1  1
 20 46  1  0
 21 22  1  0
 21 47  1  6
 21 48  1  0
 22 23  1  0
 22 49  1  6
 22 50  1  0
 23 24  1  0
 23 51  1  6
 23 52  1  0
 24 53  1  1
 24 54  1  0
 25 26  1  0
 25 55  1  0
 26 56  1  0
M  END
$$$$
