ZINC000053895126
     RDKit          3D

 37 38  0  0  1  0  0  0  0  0999 V2000
   -0.0162    1.3436    0.0094 N   0  0  0  0  0  0  0  0  0  0  0  0
    0.0021   -0.0041    0.0020 C   0  0  0  0  0  0  0  0  0  0  0  0
    1.0605   -0.5961   -0.0113 O   0  0  0  0  0  0  0  0  0  0  0  0
   -1.2926   -0.7753    0.0102 C   0  0  2  0  0  0  0  0  0  0  0  0
   -1.8842   -0.5321    0.8929 H   0  0  0  0  0  0  0  0  0  0  0  0
   -1.0312   -2.3019   -0.0808 C   0  0  1  0  0  0  0  0  0  0  0  0
   -2.3250   -2.8360   -0.7308 C   0  0  1  0  0  0  0  0  0  0  0  0
   -2.9517   -1.7127   -1.4427 N   0  0  0  0  0  0  0  0  0  0  0  0
   -4.1135   -1.7645   -2.1239 C   0  0  0  0  0  0  0  0  0  0  0  0
   -4.5381   -0.7712   -2.6752 O   0  0  0  0  0  0  0  0  0  0  0  0
   -4.8851   -3.0567   -2.2004 C   0  0  1  0  0  0  0  0  0  0  0  0
   -6.0718   -2.8580   -2.9713 O   0  0  0  0  0  0  0  0  0  0  0  0
   -6.8861   -3.9331   -3.1385 C   0  0  0  0  0  0  0  0  0  0  0  0
   -6.5529   -5.1527   -2.5673 C   0  0  0  0  0  0  0  0  0  0  0  0
   -7.3826   -6.2439   -2.7383 C   0  0  0  0  0  0  0  0  0  0  0  0
   -8.5442   -6.1214   -3.4783 C   0  0  0  0  0  0  0  0  0  0  0  0
   -9.4473   -7.3135   -3.6636 C   0  0  1  0  0  0  0  0  0  0  0  0
  -10.3877   -7.3514   -2.6286 F   0  0  0  0  0  0  0  0  0  0  0  0
  -10.1093   -7.2105   -4.8917 F   0  0  0  0  0  0  0  0  0  0  0  0
   -8.6831   -8.4851   -3.6426 F   0  0  0  0  0  0  0  0  0  0  0  0
   -8.8788   -4.9068   -4.0481 C   0  0  0  0  0  0  0  0  0  0  0  0
   -8.0550   -3.8113   -3.8757 C   0  0  0  0  0  0  0  0  0  0  0  0
   -2.0997   -0.5191   -1.2869 C   0  0  1  0  0  0  0  0  0  0  0  0
    0.8172    1.8399    0.0041 H   0  0  0  0  0  0  0  0  0  0  0  0
   -0.8627    1.8171    0.0160 H   0  0  0  0  0  0  0  0  0  0  0  0
   -0.1681   -2.5083   -0.7137 H   0  0  0  0  0  0  0  0  0  0  0  0
   -0.8936   -2.7295    0.9123 H   0  0  0  0  0  0  0  0  0  0  0  0
   -2.0847   -3.6330   -1.4344 H   0  0  0  0  0  0  0  0  0  0  0  0
   -2.9998   -3.2096    0.0394 H   0  0  0  0  0  0  0  0  0  0  0  0
   -4.2682   -3.8208   -2.6735 H   0  0  0  0  0  0  0  0  0  0  0  0
   -5.1548   -3.3790   -1.1947 H   0  0  0  0  0  0  0  0  0  0  0  0
   -5.6454   -5.2490   -1.9898 H   0  0  0  0  0  0  0  0  0  0  0  0
   -7.1237   -7.1935   -2.2939 H   0  0  0  0  0  0  0  0  0  0  0  0
   -9.7868   -4.8136   -4.6254 H   0  0  0  0  0  0  0  0  0  0  0  0
   -8.3168   -2.8629   -4.3210 H   0  0  0  0  0  0  0  0  0  0  0  0
   -2.7146    0.3748   -1.1821 H   0  0  0  0  0  0  0  0  0  0  0  0
   -1.4265   -0.4198   -2.1384 H   0  0  0  0  0  0  0  0  0  0  0  0
  1  2  1  0
  1 24  1  0
  1 25  1  0
  2  3  2  0
  2  4  1  0
  4  5  1  1
  4 23  1  0
  4  6  1  0
  6  7  1  0
  6 26  1  6
  6 27  1  0
  7  8  1  0
  7 28  1  6
  7 29  1  0
  8  9  1  0
  8 23  1  0
  9 10  2  0
  9 11  1  0
 11 12  1  0
 11 30  1  6
 11 31  1  0
 12 13  1  0
 13 22  2  0
 13 14  1  0
 14 15  2  0
 14 32  1  0
 15 16  1  0
 15 33  1  0
 16 17  1  0
 16 21  2  0
 17 18  1  1
 17 19  1  0
 17 20  1  0
 21 22  1  0
 21 34  1  0
 22 35  1  0
 23 36  1  1
 23 37  1  0
M  END
$$$$
