ZINC000408618310
     RDKit          3D

 58 59  0  0  1  0  0  0  0  0999 V2000
   -0.0173    1.4248    0.0099 C   0  0  1  0  0  0  0  0  0  0  0  0
    0.0021   -0.0041    0.0020 O   0  0  0  0  0  0  0  0  0  0  0  0
   -1.2953   -0.6030    0.0112 C   0  0  1  0  0  0  0  0  0  0  0  0
   -1.1538   -2.1264    0.0017 C   0  0  1  0  0  0  0  0  0  0  0  0
   -2.1404   -2.5824   -0.0809 H   0  0  0  0  0  0  0  0  0  0  0  0
   -0.2942   -2.5513   -1.1905 C   0  0  1  0  0  0  0  0  0  0  0  0
   -0.5155   -2.5654    1.2451 N   0  0  0  0  0  0  0  0  0  0  0  0
   -0.7243   -3.8149    1.7051 C   0  0  0  0  0  0  0  0  0  0  0  0
   -1.4405   -4.5759    1.0897 O   0  0  0  0  0  0  0  0  0  0  0  0
   -0.0677   -4.2664    2.9842 C   0  0  1  0  0  0  0  0  0  0  0  0
   -0.4493   -5.6524    3.2662 N   0  0  0  0  0  0  0  0  0  0  0  0
    0.2977   -6.7561    2.6579 C   0  0  1  0  0  0  0  0  0  0  0  0
    1.5065   -7.0696    3.5014 C   0  0  0  0  0  0  0  0  0  0  0  0
    2.7046   -6.4239    3.2592 C   0  0  0  0  0  0  0  0  0  0  0  0
    3.8135   -6.7113    4.0329 C   0  0  0  0  0  0  0  0  0  0  0  0
    3.7242   -7.6442    5.0491 C   0  0  0  0  0  0  0  0  0  0  0  0
    2.5259   -8.2892    5.2919 C   0  0  0  0  0  0  0  0  0  0  0  0
    1.4159   -7.9986    4.5210 C   0  0  0  0  0  0  0  0  0  0  0  0
   -1.7252   -5.9715    4.2725 S   0  0  1  0  0  0  0  0  0  0  0  0
   -1.5163   -7.2813    4.7824 O   0  0  0  0  0  0  0  0  0  0  0  0
   -1.8762   -4.8289    5.1037 O   0  0  0  0  0  0  0  0  0  0  0  0
   -3.1723   -6.0525    3.2705 C   0  0  0  0  0  0  0  0  0  0  0  0
   -3.9078   -4.9079    3.0277 C   0  0  0  0  0  0  0  0  0  0  0  0
   -5.0445   -4.9664    2.2424 C   0  0  0  0  0  0  0  0  0  0  0  0
   -5.4479   -6.1739    1.6966 C   0  0  0  0  0  0  0  0  0  0  0  0
   -6.5653   -6.2331    0.9237 O   0  0  0  0  0  0  0  0  0  0  0  0
   -7.2756   -5.0107    0.7156 C   0  0  1  0  0  0  0  0  0  0  0  0
   -4.7068   -7.3267    1.9407 C   0  0  0  0  0  0  0  0  0  0  0  0
   -5.0986   -8.5145    1.4067 O   0  0  0  0  0  0  0  0  0  0  0  0
   -4.2897   -9.6556    1.6995 C   0  0  1  0  0  0  0  0  0  0  0  0
   -3.5663   -7.2602    2.7241 C   0  0  0  0  0  0  0  0  0  0  0  0
    1.0053    1.8021    0.0021 H   0  0  0  0  0  0  0  0  0  0  0  0
   -0.5445    1.7859   -0.8732 H   0  0  0  0  0  0  0  0  0  0  0  0
   -0.5275    1.7763    0.9067 H   0  0  0  0  0  0  0  0  0  0  0  0
   -1.8320   -0.2936    0.9080 H   0  0  0  0  0  0  0  0  0  0  0  0
   -1.8490   -0.2840   -0.8718 H   0  0  0  0  0  0  0  0  0  0  0  0
   -0.7691   -2.2247   -2.1157 H   0  0  0  0  0  0  0  0  0  0  0  0
    0.6924   -2.0953   -1.1079 H   0  0  0  0  0  0  0  0  0  0  0  0
   -0.1934   -3.6366   -1.1973 H   0  0  0  0  0  0  0  0  0  0  0  0
    0.0573   -1.9567    1.7373 H   0  0  0  0  0  0  0  0  0  0  0  0
    1.0153   -4.2020    2.8790 H   0  0  0  0  0  0  0  0  0  0  0  0
   -0.3918   -3.6262    3.8046 H   0  0  0  0  0  0  0  0  0  0  0  0
   -0.3412   -7.6372    2.5970 H   0  0  0  0  0  0  0  0  0  0  0  0
    0.6180   -6.4696    1.6562 H   0  0  0  0  0  0  0  0  0  0  0  0
    2.7743   -5.6951    2.4652 H   0  0  0  0  0  0  0  0  0  0  0  0
    4.7497   -6.2074    3.8432 H   0  0  0  0  0  0  0  0  0  0  0  0
    4.5907   -7.8693    5.6531 H   0  0  0  0  0  0  0  0  0  0  0  0
    2.4563   -9.0183    6.0857 H   0  0  0  0  0  0  0  0  0  0  0  0
    0.4797   -8.5025    4.7107 H   0  0  0  0  0  0  0  0  0  0  0  0
   -3.5944   -3.9658    3.4527 H   0  0  0  0  0  0  0  0  0  0  0  0
   -5.6179   -4.0706    2.0548 H   0  0  0  0  0  0  0  0  0  0  0  0
   -8.1436   -5.1980    0.0834 H   0  0  0  0  0  0  0  0  0  0  0  0
   -7.6045   -4.6136    1.6759 H   0  0  0  0  0  0  0  0  0  0  0  0
   -6.6206   -4.2882    0.2287 H   0  0  0  0  0  0  0  0  0  0  0  0
   -4.7127  -10.5350    1.2138 H   0  0  0  0  0  0  0  0  0  0  0  0
   -3.2779   -9.4880    1.3305 H   0  0  0  0  0  0  0  0  0  0  0  0
   -4.2617   -9.8141    2.7775 H   0  0  0  0  0  0  0  0  0  0  0  0
   -2.9895   -8.1531    2.9150 H   0  0  0  0  0  0  0  0  0  0  0  0
  1  2  1  0
  1 32  1  6
  1 33  1  0
  1 34  1  0
  2  3  1  0
  3  4  1  0
  3 35  1  1
  3 36  1  0
  4  5  1  6
  4  6  1  0
  4  7  1  0
  6 37  1  6
  6 38  1  0
  6 39  1  0
  7  8  1  0
  7 40  1  0
  8  9  2  0
  8 10  1  0
 10 11  1  0
 10 41  1  6
 10 42  1  0
 11 12  1  0
 19 11  1  6
 12 13  1  0
 12 43  1  6
 12 44  1  0
 13 18  2  0
 13 14  1  0
 14 15  2  0
 14 45  1  0
 15 16  1  0
 15 46  1  0
 16 17  2  0
 16 47  1  0
 17 18  1  0
 17 48  1  0
 18 49  1  0
 19 20  2  0
 19 21  2  0
 19 22  1  0
 22 31  2  0
 22 23  1  0
 23 24  2  0
 23 50  1  0
 24 25  1  0
 24 51  1  0
 25 26  1  0
 25 28  2  0
 26 27  1  0
 27 52  1  6
 27 53  1  0
 27 54  1  0
 28 29  1  0
 28 31  1  0
 29 30  1  0
 30 55  1  6
 30 56  1  0
 30 57  1  0
 31 58  1  0
M  END
$$$$
