ZINC000004622638
     RDKit          3D

 37 38  0  0  1  0  0  0  0  0999 V2000
    0.4841    1.7201    0.1105 C   0  0  1  0  0  0  0  0  0  0  0  0
    0.3502    0.1964    0.0749 C   0  0  1  0  0  0  0  0  0  0  0  0
    1.0052   -0.3435   -1.1980 C   0  0  1  0  0  0  0  0  0  0  0  0
    0.8713   -1.8672   -1.2336 C   0  0  1  0  0  0  0  0  0  0  0  0
    1.4985   -2.3842   -2.4525 N   0  0  0  0  0  0  0  0  0  0  0  0
    0.8586   -2.5469   -3.6162 C   0  0  0  0  0  0  0  0  0  0  0  0
   -0.3156   -2.2820   -3.7843 O   0  0  0  0  0  0  0  0  0  0  0  0
    1.6602   -3.0363   -4.5794 N   0  0  0  0  0  0  0  0  0  0  0  0
    2.9894   -3.2162   -3.9703 C   0  0  2  0  0  0  0  0  0  0  0  0
    3.9843   -2.3818   -4.6486 N   0  0  0  0  0  0  0  0  0  0  0  0
    5.2171   -2.2408   -4.1224 C   0  0  0  0  0  0  0  0  0  0  0  0
    5.5299   -2.8695   -3.1336 O   0  0  0  0  0  0  0  0  0  0  0  0
    6.2067   -1.3018   -4.7626 C   0  0  1  0  0  0  0  0  0  0  0  0
    6.5857   -0.0386   -3.9870 C   0  0  1  0  0  0  0  0  0  0  0  0
    7.5894   -1.1858   -4.1180 C   0  0  1  0  0  0  0  0  0  0  0  0
    3.4055   -4.6879   -4.0111 C   0  0  1  0  0  0  0  0  0  0  0  0
    3.5831   -5.0856   -5.3406 F   0  0  0  0  0  0  0  0  0  0  0  0
    4.6052   -4.8529   -3.3107 F   0  0  0  0  0  0  0  0  0  0  0  0
    2.4085   -5.4710   -3.4194 F   0  0  0  0  0  0  0  0  0  0  0  0
    2.7927   -2.7493   -2.5416 C   0  0  0  0  0  0  0  0  0  0  0  0
    3.6251   -2.7166   -1.6608 O   0  0  0  0  0  0  0  0  0  0  0  0
    1.5395    1.9924    0.1014 H   0  0  0  0  0  0  0  0  0  0  0  0
   -0.0092    2.1487   -0.7619 H   0  0  0  0  0  0  0  0  0  0  0  0
    0.0175    2.1048    1.0174 H   0  0  0  0  0  0  0  0  0  0  0  0
    0.8435   -0.2322    0.9473 H   0  0  0  0  0  0  0  0  0  0  0  0
   -0.7052   -0.0759    0.0840 H   0  0  0  0  0  0  0  0  0  0  0  0
    0.5119    0.0851   -2.0704 H   0  0  0  0  0  0  0  0  0  0  0  0
    2.0606   -0.0712   -1.2071 H   0  0  0  0  0  0  0  0  0  0  0  0
    1.3646   -2.2958   -0.3613 H   0  0  0  0  0  0  0  0  0  0  0  0
   -0.1841   -2.1395   -1.2245 H   0  0  0  0  0  0  0  0  0  0  0  0
    1.4113   -3.2329   -5.4960 H   0  0  0  0  0  0  0  0  0  0  0  0
    3.7559   -1.9309   -5.4765 H   0  0  0  0  0  0  0  0  0  0  0  0
    6.1500   -1.2279   -5.8486 H   0  0  0  0  0  0  0  0  0  0  0  0
    6.7782    0.8668   -4.5627 H   0  0  0  0  0  0  0  0  0  0  0  0
    6.1192    0.1133   -3.0137 H   0  0  0  0  0  0  0  0  0  0  0  0
    7.7833   -1.7887   -3.2308 H   0  0  0  0  0  0  0  0  0  0  0  0
    8.4423   -1.0353   -4.7798 H   0  0  0  0  0  0  0  0  0  0  0  0
  1  2  1  0
  1 22  1  1
  1 23  1  0
  1 24  1  0
  2  3  1  0
  2 25  1  1
  2 26  1  0
  3  4  1  0
  3 27  1  6
  3 28  1  0
  4  5  1  0
  4 29  1  1
  4 30  1  0
  5 20  1  0
  5  6  1  0
  6  7  2  0
  6  8  1  0
  8  9  1  0
  8 31  1  0
  9 10  1  6
  9 16  1  0
  9 20  1  0
 10 11  1  0
 10 32  1  0
 11 12  2  0
 11 13  1  0
 13 15  1  0
 13 14  1  0
 13 33  1  6
 14 15  1  0
 14 34  1  6
 14 35  1  0
 15 36  1  1
 15 37  1  0
 16 17  1  6
 16 18  1  0
 16 19  1  0
 20 21  2  0
M  END
$$$$
