ZINC000026766401
     RDKit          3D

 61 62  0  0  0  0  0  0  0  0999 V2000
   -0.0187    1.5258    0.0104 C   0  0  1  0  0  0  0  0  0  0  0  0
    0.0021   -0.0041    0.0020 C   0  0  1  0  0  0  0  0  0  0  0  0
   -1.3723   -0.5112    0.0124 N   0  0  0  0  0  0  0  0  0  0  0  0
   -2.1099   -0.6542   -1.2453 C   0  0  1  0  0  0  0  0  0  0  0  0
   -1.7727   -2.0031   -1.8836 C   0  0  1  0  0  0  0  0  0  0  0  0
   -2.0922   -0.9227    1.4458 S   0  0  1  0  0  0  0  0  0  0  0  0
   -3.1196   -1.8512    1.1269 O   0  0  0  0  0  0  0  0  0  0  0  0
   -1.0393   -1.2108    2.3555 O   0  0  0  0  0  0  0  0  0  0  0  0
   -2.8978    0.5199    2.0580 C   0  0  0  0  0  0  0  0  0  0  0  0
   -2.2156    1.3954    2.8820 C   0  0  0  0  0  0  0  0  0  0  0  0
   -2.8476    2.5271    3.3622 C   0  0  0  0  0  0  0  0  0  0  0  0
   -4.1616    2.7836    3.0181 C   0  0  0  0  0  0  0  0  0  0  0  0
   -4.8508    4.0171    3.5421 C   0  0  1  0  0  0  0  0  0  0  0  0
   -4.6371    5.1747    2.5647 C   0  0  1  0  0  0  0  0  0  0  0  0
   -5.3263    6.4082    3.0886 C   0  0  0  0  0  0  0  0  0  0  0  0
   -5.9290    6.3657    4.1402 O   0  0  0  0  0  0  0  0  0  0  0  0
   -5.2728    7.5587    2.3886 N   0  0  0  0  0  0  0  0  0  0  0  0
   -5.9428    8.7579    2.8979 C   0  0  1  0  0  0  0  0  0  0  0  0
   -5.0173    9.4814    3.8781 C   0  0  1  0  0  0  0  0  0  0  0  0
   -5.5266   10.9067    4.1025 C   0  0  1  0  0  0  0  0  0  0  0  0
   -6.7450   10.8732    5.0274 C   0  0  1  0  0  0  0  0  0  0  0  0
   -7.9663   10.3878    4.2441 C   0  0  1  0  0  0  0  0  0  0  0  0
   -8.0064   11.0797    2.8802 C   0  0  1  0  0  0  0  0  0  0  0  0
   -7.7658   10.0472    1.7770 C   0  0  1  0  0  0  0  0  0  0  0  0
   -6.2791    9.6884    1.7311 C   0  0  1  0  0  0  0  0  0  0  0  0
   -4.8434    1.9088    2.1930 C   0  0  0  0  0  0  0  0  0  0  0  0
   -4.2102    0.7790    1.7096 C   0  0  0  0  0  0  0  0  0  0  0  0
    1.0039    1.9031    0.0027 H   0  0  0  0  0  0  0  0  0  0  0  0
   -0.5459    1.8868   -0.8726 H   0  0  0  0  0  0  0  0  0  0  0  0
   -0.5289    1.8773    0.9072 H   0  0  0  0  0  0  0  0  0  0  0  0
    0.5123   -0.3556   -0.8948 H   0  0  0  0  0  0  0  0  0  0  0  0
    0.5293   -0.3651    0.8851 H   0  0  0  0  0  0  0  0  0  0  0  0
   -3.1804   -0.6037   -1.0465 H   0  0  0  0  0  0  0  0  0  0  0  0
   -1.8283    0.1500   -1.9251 H   0  0  0  0  0  0  0  0  0  0  0  0
   -0.7022   -2.0536   -2.0825 H   0  0  0  0  0  0  0  0  0  0  0  0
   -2.0544   -2.8073   -1.2038 H   0  0  0  0  0  0  0  0  0  0  0  0
   -2.3215   -2.1096   -2.8194 H   0  0  0  0  0  0  0  0  0  0  0  0
   -1.1890    1.1950    3.1509 H   0  0  0  0  0  0  0  0  0  0  0  0
   -2.3149    3.2108    4.0066 H   0  0  0  0  0  0  0  0  0  0  0  0
   -5.9180    3.8210    3.6452 H   0  0  0  0  0  0  0  0  0  0  0  0
   -4.4342    4.2808    4.5142 H   0  0  0  0  0  0  0  0  0  0  0  0
   -3.5699    5.3709    2.4615 H   0  0  0  0  0  0  0  0  0  0  0  0
   -5.0537    4.9110    1.5925 H   0  0  0  0  0  0  0  0  0  0  0  0
   -4.7908    7.5927    1.5475 H   0  0  0  0  0  0  0  0  0  0  0  0
   -6.8612    8.4710    3.4101 H   0  0  0  0  0  0  0  0  0  0  0  0
   -5.0042    8.9465    4.8277 H   0  0  0  0  0  0  0  0  0  0  0  0
   -4.0085    9.5165    3.4668 H   0  0  0  0  0  0  0  0  0  0  0  0
   -4.7394   11.5060    4.5601 H   0  0  0  0  0  0  0  0  0  0  0  0
   -5.8085   11.3467    3.1459 H   0  0  0  0  0  0  0  0  0  0  0  0
   -6.5523   10.1938    5.8577 H   0  0  0  0  0  0  0  0  0  0  0  0
   -6.9356   11.8744    5.4139 H   0  0  0  0  0  0  0  0  0  0  0  0
   -7.9017    9.3090    4.1024 H   0  0  0  0  0  0  0  0  0  0  0  0
   -8.8729   10.6274    4.7997 H   0  0  0  0  0  0  0  0  0  0  0  0
   -8.9822   11.5438    2.7369 H   0  0  0  0  0  0  0  0  0  0  0  0
   -7.2307   11.8442    2.8378 H   0  0  0  0  0  0  0  0  0  0  0  0
   -8.3498    9.1506    1.9847 H   0  0  0  0  0  0  0  0  0  0  0  0
   -8.0688   10.4641    0.8166 H   0  0  0  0  0  0  0  0  0  0  0  0
   -5.6833   10.5979    1.8084 H   0  0  0  0  0  0  0  0  0  0  0  0
   -6.0554    9.1863    0.7899 H   0  0  0  0  0  0  0  0  0  0  0  0
   -5.8699    2.1094    1.9238 H   0  0  0  0  0  0  0  0  0  0  0  0
   -4.7428    0.0956    1.0650 H   0  0  0  0  0  0  0  0  0  0  0  0
  1  2  1  0
  1 28  1  6
  1 29  1  0
  1 30  1  0
  2  3  1  0
  2 31  1  6
  2 32  1  0
  3  4  1  0
  6  3  1  6
  4  5  1  0
  4 33  1  1
  4 34  1  0
  5 35  1  6
  5 36  1  0
  5 37  1  0
  6  7  2  0
  6  8  2  0
  6  9  1  0
  9 27  2  0
  9 10  1  0
 10 11  2  0
 10 38  1  0
 11 12  1  0
 11 39  1  0
 12 13  1  0
 12 26  2  0
 13 14  1  0
 13 40  1  1
 13 41  1  0
 14 15  1  0
 14 42  1  6
 14 43  1  0
 15 16  2  0
 15 17  1  0
 17 18  1  0
 17 44  1  0
 18 25  1  0
 18 19  1  0
 18 45  1  1
 19 20  1  0
 19 46  1  1
 19 47  1  0
 20 21  1  0
 20 48  1  1
 20 49  1  0
 21 22  1  0
 21 50  1  1
 21 51  1  0
 22 23  1  0
 22 52  1  6
 22 53  1  0
 23 24  1  0
 23 54  1  6
 23 55  1  0
 24 25  1  0
 24 56  1  1
 24 57  1  0
 25 58  1  1
 25 59  1  0
 26 27  1  0
 26 60  1  0
 27 61  1  0
M  END
$$$$
