ZINC000072354603
     RDKit          3D

 42 44  0  0  1  0  0  0  0  0999 V2000
   -0.0184    1.5028    0.0103 C   0  0  1  0  0  0  0  0  0  0  0  0
    0.0021   -0.0041    0.0020 C   0  0  0  0  0  0  0  0  0  0  0  0
    1.0605   -0.5961   -0.0113 O   0  0  0  0  0  0  0  0  0  0  0  0
   -1.1558   -0.6938    0.0094 N   0  0  0  0  0  0  0  0  0  0  0  0
   -2.5070   -0.1042    0.0190 C   0  0  1  0  0  0  0  0  0  0  0  0
   -3.4130   -1.1990    0.6356 C   0  0  1  0  0  0  0  0  0  0  0  0
   -2.7874   -2.4902    0.0449 C   0  0  1  0  0  0  0  0  0  0  0  0
   -1.2807   -2.1587    0.0027 C   0  0  1  0  0  0  0  0  0  0  0  0
   -0.7854   -2.5720    0.8813 H   0  0  0  0  0  0  0  0  0  0  0  0
   -0.6650   -2.7299   -1.2486 C   0  0  0  0  0  0  0  0  0  0  0  0
   -0.8699   -2.1535   -2.4195 N   0  0  0  0  0  0  0  0  0  0  0  0
   -0.3319   -2.6491   -3.5249 C   0  0  0  0  0  0  0  0  0  0  0  0
   -0.5704   -2.0154   -4.7313 N   0  0  0  0  0  0  0  0  0  0  0  0
    0.4284   -3.7343   -3.5068 N   0  0  0  0  0  0  0  0  0  0  0  0
    0.6797   -4.3673   -2.3744 C   0  0  0  0  0  0  0  0  0  0  0  0
    0.1355   -3.8736   -1.1862 C   0  0  0  0  0  0  0  0  0  0  0  0
    0.3923   -4.5526    0.1078 C   0  0  0  0  0  0  0  0  0  0  0  0
    0.8262   -3.8175    1.2093 C   0  0  0  0  0  0  0  0  0  0  0  0
    1.0631   -4.4541    2.4107 C   0  0  0  0  0  0  0  0  0  0  0  0
    0.8710   -5.8194    2.5225 C   0  0  0  0  0  0  0  0  0  0  0  0
    1.1313   -6.5089    3.8370 C   0  0  1  0  0  0  0  0  0  0  0  0
   -0.0414   -6.5168    4.5997 F   0  0  0  0  0  0  0  0  0  0  0  0
    1.5423   -7.8250    3.5998 F   0  0  0  0  0  0  0  0  0  0  0  0
    2.1348   -5.8250    4.5316 F   0  0  0  0  0  0  0  0  0  0  0  0
    0.4404   -6.5540    1.4324 C   0  0  0  0  0  0  0  0  0  0  0  0
    0.1950   -5.9268    0.2278 C   0  0  0  0  0  0  0  0  0  0  0  0
    1.0042    1.8801    0.0026 H   0  0  0  0  0  0  0  0  0  0  0  0
   -0.5455    1.8639   -0.8728 H   0  0  0  0  0  0  0  0  0  0  0  0
   -0.5286    1.8543    0.9071 H   0  0  0  0  0  0  0  0  0  0  0  0
   -2.5245    0.7943    0.6358 H   0  0  0  0  0  0  0  0  0  0  0  0
   -2.8278    0.1258   -0.9970 H   0  0  0  0  0  0  0  0  0  0  0  0
   -3.3458   -1.1947    1.7235 H   0  0  0  0  0  0  0  0  0  0  0  0
   -4.4462   -1.0808    0.3091 H   0  0  0  0  0  0  0  0  0  0  0  0
   -2.9787   -3.3438    0.6951 H   0  0  0  0  0  0  0  0  0  0  0  0
   -3.1657   -2.6771   -0.9601 H   0  0  0  0  0  0  0  0  0  0  0  0
   -1.1247   -1.2199   -4.7600 H   0  0  0  0  0  0  0  0  0  0  0  0
   -0.1834   -2.3666   -5.5485 H   0  0  0  0  0  0  0  0  0  0  0  0
    1.3003   -5.2511   -2.3669 H   0  0  0  0  0  0  0  0  0  0  0  0
    0.9771   -2.7516    1.1228 H   0  0  0  0  0  0  0  0  0  0  0  0
    1.3994   -3.8854    3.2650 H   0  0  0  0  0  0  0  0  0  0  0  0
    0.2921   -7.6197    1.5253 H   0  0  0  0  0  0  0  0  0  0  0  0
   -0.1412   -6.5013   -0.6227 H   0  0  0  0  0  0  0  0  0  0  0  0
  1  2  1  0
  1 27  1  6
  1 28  1  0
  1 29  1  0
  2  3  2  0
  2  4  1  0
  4  8  1  0
  4  5  1  0
  5  6  1  0
  5 30  1  1
  5 31  1  0
  6  7  1  0
  6 32  1  1
  6 33  1  0
  7  8  1  0
  7 34  1  1
  7 35  1  0
  8  9  1  1
  8 10  1  0
 10 16  2  0
 10 11  1  0
 11 12  2  0
 12 13  1  0
 12 14  1  0
 13 36  1  0
 13 37  1  0
 14 15  2  0
 15 16  1  0
 15 38  1  0
 16 17  1  0
 17 26  2  0
 17 18  1  0
 18 19  2  0
 18 39  1  0
 19 20  1  0
 19 40  1  0
 20 21  1  0
 20 25  2  0
 21 22  1  1
 21 23  1  0
 21 24  1  0
 25 26  1  0
 25 41  1  0
 26 42  1  0
M  END
$$$$
