ZINC000408611089
     RDKit          3D

 63 65  0  0  1  0  0  0  0  0999 V2000
   -9.0402   -6.0417    4.2274 C   0  0  1  0  0  0  0  0  0  0  0  0
   -9.2609   -4.7557    3.6448 O   0  0  0  0  0  0  0  0  0  0  0  0
   -8.3028   -4.2872    2.8026 C   0  0  0  0  0  0  0  0  0  0  0  0
   -7.1761   -5.0521    2.5377 C   0  0  0  0  0  0  0  0  0  0  0  0
   -6.2038   -4.5739    1.6808 C   0  0  0  0  0  0  0  0  0  0  0  0
   -6.3526   -3.3339    1.0876 C   0  0  0  0  0  0  0  0  0  0  0  0
   -5.1103   -2.7265   -0.0044 S   0  0  1  0  0  0  0  0  0  0  0  0
   -5.1484   -1.3094    0.0930 O   0  0  0  0  0  0  0  0  0  0  0  0
   -3.9411   -3.4921    0.2525 O   0  0  0  0  0  0  0  0  0  0  0  0
   -5.5860   -3.1022   -1.5454 N   0  0  0  0  0  0  0  0  0  0  0  0
   -5.2904   -4.4250   -2.1013 C   0  0  1  0  0  0  0  0  0  0  0  0
   -6.4771   -5.3316   -1.8991 C   0  0  0  0  0  0  0  0  0  0  0  0
   -7.4719   -4.9139   -1.3452 O   0  0  0  0  0  0  0  0  0  0  0  0
   -6.4329   -6.6066   -2.3338 N   0  0  0  0  0  0  0  0  0  0  0  0
   -7.5866   -7.4879   -2.1372 C   0  0  2  0  0  0  0  0  0  0  0  0
   -8.5057   -6.9094   -2.2302 H   0  0  0  0  0  0  0  0  0  0  0  0
   -7.5175   -8.1151   -0.7434 C   0  0  1  0  0  0  0  0  0  0  0  0
   -7.5703   -8.5930   -3.1952 C   0  0  1  0  0  0  0  0  0  0  0  0
   -7.7646   -7.9749   -4.5813 C   0  0  1  0  0  0  0  0  0  0  0  0
   -7.7486   -9.0634   -5.6234 C   0  0  0  0  0  0  0  0  0  0  0  0
   -6.5549   -9.4428   -6.2083 C   0  0  0  0  0  0  0  0  0  0  0  0
   -6.5402  -10.4412   -7.1642 C   0  0  0  0  0  0  0  0  0  0  0  0
   -7.7191  -11.0607   -7.5348 C   0  0  0  0  0  0  0  0  0  0  0  0
   -8.9127  -10.6819   -6.9493 C   0  0  0  0  0  0  0  0  0  0  0  0
   -8.9268   -9.6864   -5.9903 C   0  0  0  0  0  0  0  0  0  0  0  0
   -6.3025   -2.1118   -2.3529 C   0  0  1  0  0  0  0  0  0  0  0  0
   -5.3245   -1.3823   -3.2373 C   0  0  0  0  0  0  0  0  0  0  0  0
   -4.7921   -0.1736   -2.8293 C   0  0  0  0  0  0  0  0  0  0  0  0
   -3.8950    0.4956   -3.6406 C   0  0  0  0  0  0  0  0  0  0  0  0
   -3.5299   -0.0441   -4.8598 C   0  0  0  0  0  0  0  0  0  0  0  0
   -4.0616   -1.2533   -5.2674 C   0  0  0  0  0  0  0  0  0  0  0  0
   -4.9555   -1.9245   -4.4542 C   0  0  0  0  0  0  0  0  0  0  0  0
   -7.4748   -2.5698    1.3496 C   0  0  0  0  0  0  0  0  0  0  0  0
   -8.4524   -3.0458    2.2017 C   0  0  0  0  0  0  0  0  0  0  0  0
   -9.8781   -6.2951    4.8769 H   0  0  0  0  0  0  0  0  0  0  0  0
   -8.9538   -6.7883    3.4379 H   0  0  0  0  0  0  0  0  0  0  0  0
   -8.1203   -6.0228    4.8118 H   0  0  0  0  0  0  0  0  0  0  0  0
   -7.0591   -6.0205    3.0013 H   0  0  0  0  0  0  0  0  0  0  0  0
   -5.3265   -5.1690    1.4743 H   0  0  0  0  0  0  0  0  0  0  0  0
   -5.0811   -4.3328   -3.1671 H   0  0  0  0  0  0  0  0  0  0  0  0
   -4.4214   -4.8458   -1.5955 H   0  0  0  0  0  0  0  0  0  0  0  0
   -5.6373   -6.9407   -2.7768 H   0  0  0  0  0  0  0  0  0  0  0  0
   -8.3759   -8.7709   -0.5971 H   0  0  0  0  0  0  0  0  0  0  0  0
   -6.5984   -8.6936   -0.6505 H   0  0  0  0  0  0  0  0  0  0  0  0
   -7.5291   -7.3278    0.0103 H   0  0  0  0  0  0  0  0  0  0  0  0
   -6.6139   -9.1148   -3.1609 H   0  0  0  0  0  0  0  0  0  0  0  0
   -8.3766   -9.2988   -2.9958 H   0  0  0  0  0  0  0  0  0  0  0  0
   -8.7210   -7.4531   -4.6156 H   0  0  0  0  0  0  0  0  0  0  0  0
   -6.9583   -7.2691   -4.7807 H   0  0  0  0  0  0  0  0  0  0  0  0
   -5.6339   -8.9589   -5.9187 H   0  0  0  0  0  0  0  0  0  0  0  0
   -5.6077  -10.7371   -7.6216 H   0  0  0  0  0  0  0  0  0  0  0  0
   -7.7077  -11.8402   -8.2822 H   0  0  0  0  0  0  0  0  0  0  0  0
   -9.8338  -11.1656   -7.2391 H   0  0  0  0  0  0  0  0  0  0  0  0
   -9.8593   -9.3905   -5.5328 H   0  0  0  0  0  0  0  0  0  0  0  0
   -7.0455   -2.6158   -2.9710 H   0  0  0  0  0  0  0  0  0  0  0  0
   -6.8001   -1.3986   -1.6957 H   0  0  0  0  0  0  0  0  0  0  0  0
   -5.0774    0.2481   -1.8768 H   0  0  0  0  0  0  0  0  0  0  0  0
   -3.4796    1.4403   -3.3221 H   0  0  0  0  0  0  0  0  0  0  0  0
   -2.8296    0.4791   -5.4939 H   0  0  0  0  0  0  0  0  0  0  0  0
   -3.7766   -1.6748   -6.2200 H   0  0  0  0  0  0  0  0  0  0  0  0
   -5.3709   -2.8692   -4.7726 H   0  0  0  0  0  0  0  0  0  0  0  0
   -7.5889   -1.6016    0.8848 H   0  0  0  0  0  0  0  0  0  0  0  0
   -9.3288   -2.4486    2.4060 H   0  0  0  0  0  0  0  0  0  0  0  0
  1  2  1  0
  1 35  1  1
  1 36  1  0
  1 37  1  0
  2  3  1  0
  3 34  2  0
  3  4  1  0
  4  5  2  0
  4 38  1  0
  5  6  1  0
  5 39  1  0
  6  7  1  0
  6 33  2  0
  7  8  2  0
  7  9  2  0
  7 10  1  6
 10 11  1  0
 10 26  1  0
 11 12  1  0
 11 40  1  6
 11 41  1  0
 12 13  2  0
 12 14  1  0
 14 15  1  0
 14 42  1  0
 15 16  1  1
 15 17  1  0
 15 18  1  0
 17 43  1  1
 17 44  1  0
 17 45  1  0
 18 19  1  0
 18 46  1  6
 18 47  1  0
 19 20  1  0
 19 48  1  1
 19 49  1  0
 20 25  2  0
 20 21  1  0
 21 22  2  0
 21 50  1  0
 22 23  1  0
 22 51  1  0
 23 24  2  0
 23 52  1  0
 24 25  1  0
 24 53  1  0
 25 54  1  0
 26 27  1  0
 26 55  1  6
 26 56  1  0
 27 32  2  0
 27 28  1  0
 28 29  2  0
 28 57  1  0
 29 30  1  0
 29 58  1  0
 30 31  2  0
 30 59  1  0
 31 32  1  0
 31 60  1  0
 32 61  1  0
 33 34  1  0
 33 62  1  0
 34 63  1  0
M  END
$$$$
