ZINC000408988865
     RDKit          3D

 54 56  0  0  1  0  0  0  0  0999 V2000
    0.0021   -0.0041    0.0020 O   0  0  0  0  0  0  0  0  0  0  0  0
   -0.0144    1.2086    0.0087 C   0  0  0  0  0  0  0  0  0  0  0  0
    1.2803    1.9798    0.0005 C   0  0  1  0  0  0  0  0  0  0  0  0
    2.4066    1.0431   -0.0153 N   0  0  0  0  0  0  0  0  0  0  0  0
    2.8870    0.4965   -1.2868 C   0  0  1  0  0  0  0  0  0  0  0  0
    3.8806    1.4732   -1.9190 C   0  0  1  0  0  0  0  0  0  0  0  0
    4.3747    0.9110   -3.2269 C   0  0  0  0  0  0  0  0  0  0  0  0
    5.4974    0.1048   -3.2526 C   0  0  0  0  0  0  0  0  0  0  0  0
    5.9506   -0.4110   -4.4523 C   0  0  0  0  0  0  0  0  0  0  0  0
    5.2810   -0.1209   -5.6264 C   0  0  0  0  0  0  0  0  0  0  0  0
    4.1578    0.6845   -5.6006 C   0  0  0  0  0  0  0  0  0  0  0  0
    3.7020    1.1967   -4.4002 C   0  0  0  0  0  0  0  0  0  0  0  0
    3.1367    0.6021    1.4041 S   0  0  1  0  0  0  0  0  0  0  0  0
    4.4947    0.3274    1.0884 O   0  0  0  0  0  0  0  0  0  0  0  0
    2.7433    1.5638    2.3734 O   0  0  0  0  0  0  0  0  0  0  0  0
    2.4227   -0.9292    1.9041 C   0  0  0  0  0  0  0  0  0  0  0  0
    1.3003   -0.9374    2.7111 C   0  0  0  0  0  0  0  0  0  0  0  0
    0.7396   -2.1383    3.1032 C   0  0  0  0  0  0  0  0  0  0  0  0
    1.3016   -3.3321    2.6881 C   0  0  0  0  0  0  0  0  0  0  0  0
    0.5346   -4.9755    3.2237 Br  0  0  0  0  0  0  0  0  0  0  0  0
    2.4247   -3.3234    1.8806 C   0  0  0  0  0  0  0  0  0  0  0  0
    2.9817   -2.1220    1.4847 C   0  0  0  0  0  0  0  0  0  0  0  0
   -1.1906    1.8666    0.0178 N   0  0  0  0  0  0  0  0  0  0  0  0
   -2.4492    1.1169    0.0197 C   0  0  1  0  0  0  0  0  0  0  0  0
   -3.6255    2.0952    0.0306 C   0  0  1  0  0  0  0  0  0  0  0  0
   -3.5863    2.7429   -0.8452 H   0  0  0  0  0  0  0  0  0  0  0  0
   -4.9678    1.3220    0.0681 C   0  0  1  0  0  0  0  0  0  0  0  0
   -5.9021    2.3843    0.7088 C   0  0  1  0  0  0  0  0  0  0  0  0
   -4.9509    3.1125    1.6826 C   0  0  1  0  0  0  0  0  0  0  0  0
   -3.6093    2.8811    1.2330 O   0  0  0  0  0  0  0  0  0  0  0  0
    1.3211    2.6120   -0.8866 H   0  0  0  0  0  0  0  0  0  0  0  0
    1.3381    2.6024    0.8933 H   0  0  0  0  0  0  0  0  0  0  0  0
    3.3803   -0.4590   -1.1083 H   0  0  0  0  0  0  0  0  0  0  0  0
    2.0432    0.3494   -1.9610 H   0  0  0  0  0  0  0  0  0  0  0  0
    3.3872    2.4287   -2.0974 H   0  0  0  0  0  0  0  0  0  0  0  0
    4.7243    1.6203   -1.2448 H   0  0  0  0  0  0  0  0  0  0  0  0
    6.0205   -0.1218   -2.3353 H   0  0  0  0  0  0  0  0  0  0  0  0
    6.8281   -1.0402   -4.4725 H   0  0  0  0  0  0  0  0  0  0  0  0
    5.6355   -0.5233   -6.5638 H   0  0  0  0  0  0  0  0  0  0  0  0
    3.6348    0.9113   -6.5179 H   0  0  0  0  0  0  0  0  0  0  0  0
    2.8245    1.8260   -4.3801 H   0  0  0  0  0  0  0  0  0  0  0  0
    0.8617   -0.0053    3.0355 H   0  0  0  0  0  0  0  0  0  0  0  0
   -0.1371   -2.1447    3.7340 H   0  0  0  0  0  0  0  0  0  0  0  0
    2.8639   -4.2552    1.5562 H   0  0  0  0  0  0  0  0  0  0  0  0
    3.8585   -2.1151    0.8542 H   0  0  0  0  0  0  0  0  0  0  0  0
   -1.2037    2.8365    0.0232 H   0  0  0  0  0  0  0  0  0  0  0  0
   -2.5027    0.4944   -0.8734 H   0  0  0  0  0  0  0  0  0  0  0  0
   -2.4943    0.4847    0.9065 H   0  0  0  0  0  0  0  0  0  0  0  0
   -5.2996    1.0622   -0.9372 H   0  0  0  0  0  0  0  0  0  0  0  0
   -4.8926    0.4347    0.6966 H   0  0  0  0  0  0  0  0  0  0  0  0
   -6.2842    3.0710   -0.0465 H   0  0  0  0  0  0  0  0  0  0  0  0
   -6.7193    1.9066    1.2493 H   0  0  0  0  0  0  0  0  0  0  0  0
   -5.1624    4.1818    1.6758 H   0  0  0  0  0  0  0  0  0  0  0  0
   -5.0781    2.7157    2.6898 H   0  0  0  0  0  0  0  0  0  0  0  0
  1  2  2  0
  2  3  1  0
  2 23  1  0
  3  4  1  0
  3 31  1  6
  3 32  1  0
  4  5  1  0
 13  4  1  6
  5  6  1  0
  5 33  1  1
  5 34  1  0
  6  7  1  0
  6 35  1  6
  6 36  1  0
  7 12  2  0
  7  8  1  0
  8  9  2  0
  8 37  1  0
  9 10  1  0
  9 38  1  0
 10 11  2  0
 10 39  1  0
 11 12  1  0
 11 40  1  0
 12 41  1  0
 13 14  2  0
 13 15  2  0
 13 16  1  0
 16 22  2  0
 16 17  1  0
 17 18  2  0
 17 42  1  0
 18 19  1  0
 18 43  1  0
 19 20  1  0
 19 21  2  0
 21 22  1  0
 21 44  1  0
 22 45  1  0
 23 24  1  0
 23 46  1  0
 24 25  1  0
 24 47  1  6
 24 48  1  0
 25 26  1  6
 25 30  1  0
 25 27  1  0
 27 28  1  0
 27 49  1  6
 27 50  1  0
 28 29  1  0
 28 51  1  6
 28 52  1  0
 29 30  1  0
 29 53  1  1
 29 54  1  0
M  END
$$$$
