ZINC000028208086
     RDKit          3D

 49 49  0  0  1  0  0  0  0  0999 V2000
   -0.0187    1.5258    0.0104 C   0  0  1  0  0  0  0  0  0  0  0  0
    0.0021   -0.0041    0.0020 C   0  0  1  0  0  0  0  0  0  0  0  0
    0.7421   -0.5109    1.2415 C   0  0  1  0  0  0  0  0  0  0  0  0
    0.2852   -0.0874    2.1360 H   0  0  0  0  0  0  0  0  0  0  0  0
    0.6554   -2.0374    1.2986 C   0  0  1  0  0  0  0  0  0  0  0  0
    2.1476   -0.1038    1.1716 N   0  0  0  0  0  0  0  0  0  0  0  0
    2.8685    0.0265    2.3029 C   0  0  0  0  0  0  0  0  0  0  0  0
    2.3536   -0.1931    3.3788 O   0  0  0  0  0  0  0  0  0  0  0  0
    4.3144    0.4453    2.2310 C   0  0  1  0  0  0  0  0  0  0  0  0
    4.8572    0.5120    3.5512 O   0  0  0  0  0  0  0  0  0  0  0  0
    6.1614    0.8777    3.6644 C   0  0  0  0  0  0  0  0  0  0  0  0
    6.9014    1.1718    2.5292 C   0  0  0  0  0  0  0  0  0  0  0  0
    8.2271    1.5439    2.6468 C   0  0  0  0  0  0  0  0  0  0  0  0
    8.8164    1.6228    3.8947 C   0  0  0  0  0  0  0  0  0  0  0  0
   10.5070    2.0976    4.0404 S   0  0  1  0  0  0  0  0  0  0  0  0
   10.9661    1.5721    5.2783 O   0  0  0  0  0  0  0  0  0  0  0  0
   11.1176    1.7954    2.7934 O   0  0  0  0  0  0  0  0  0  0  0  0
   10.5418    3.7464    4.1907 N   0  0  0  0  0  0  0  0  0  0  0  0
   10.4804    4.3624    5.5185 C   0  0  1  0  0  0  0  0  0  0  0  0
   11.8991    4.6528    6.0122 C   0  0  1  0  0  0  0  0  0  0  0  0
   10.6342    4.5891    2.9959 C   0  0  1  0  0  0  0  0  0  0  0  0
    9.2308    5.0232    2.5683 C   0  0  1  0  0  0  0  0  0  0  0  0
    8.0814    1.3302    5.0290 C   0  0  0  0  0  0  0  0  0  0  0  0
    6.7536    0.9631    4.9175 C   0  0  0  0  0  0  0  0  0  0  0  0
    5.8310    0.5958    6.3414 Cl  0  0  0  0  0  0  0  0  0  0  0  0
    1.0039    1.9031    0.0027 H   0  0  0  0  0  0  0  0  0  0  0  0
   -0.5459    1.8868   -0.8726 H   0  0  0  0  0  0  0  0  0  0  0  0
   -0.5289    1.8773    0.9072 H   0  0  0  0  0  0  0  0  0  0  0  0
   -1.0205   -0.3814    0.0098 H   0  0  0  0  0  0  0  0  0  0  0  0
    0.5123   -0.3556   -0.8948 H   0  0  0  0  0  0  0  0  0  0  0  0
    1.1123   -2.4609    0.4042 H   0  0  0  0  0  0  0  0  0  0  0  0
    1.1826   -2.3985    2.1817 H   0  0  0  0  0  0  0  0  0  0  0  0
   -0.3904   -2.3402    1.3506 H   0  0  0  0  0  0  0  0  0  0  0  0
    2.5595    0.0718    0.3111 H   0  0  0  0  0  0  0  0  0  0  0  0
    4.8747   -0.2826    1.6441 H   0  0  0  0  0  0  0  0  0  0  0  0
    4.3858    1.4251    1.7588 H   0  0  0  0  0  0  0  0  0  0  0  0
    6.4420    1.1098    1.5537 H   0  0  0  0  0  0  0  0  0  0  0  0
    8.8035    1.7730    1.7626 H   0  0  0  0  0  0  0  0  0  0  0  0
    9.9178    5.2942    5.4611 H   0  0  0  0  0  0  0  0  0  0  0  0
    9.9865    3.6819    6.2122 H   0  0  0  0  0  0  0  0  0  0  0  0
   12.4617    3.7210    6.0696 H   0  0  0  0  0  0  0  0  0  0  0  0
   12.3930    5.3333    5.3185 H   0  0  0  0  0  0  0  0  0  0  0  0
   11.8534    5.1111    7.0001 H   0  0  0  0  0  0  0  0  0  0  0  0
   11.2352    5.4707    3.2187 H   0  0  0  0  0  0  0  0  0  0  0  0
   11.1017    4.0251    2.1888 H   0  0  0  0  0  0  0  0  0  0  0  0
    8.6298    4.1416    2.3455 H   0  0  0  0  0  0  0  0  0  0  0  0
    8.7632    5.5872    3.3754 H   0  0  0  0  0  0  0  0  0  0  0  0
    9.2995    5.6502    1.6793 H   0  0  0  0  0  0  0  0  0  0  0  0
    8.5441    1.3926    6.0028 H   0  0  0  0  0  0  0  0  0  0  0  0
  1  2  1  0
  1 26  1  6
  1 27  1  0
  1 28  1  0
  2  3  1  0
  2 29  1  1
  2 30  1  0
  3  4  1  1
  3  5  1  0
  3  6  1  0
  5 31  1  6
  5 32  1  0
  5 33  1  0
  6  7  1  0
  6 34  1  0
  7  8  2  0
  7  9  1  0
  9 10  1  0
  9 35  1  6
  9 36  1  0
 10 11  1  0
 11 24  2  0
 11 12  1  0
 12 13  2  0
 12 37  1  0
 13 14  1  0
 13 38  1  0
 14 15  1  0
 14 23  2  0
 15 16  2  0
 15 17  2  0
 15 18  1  1
 18 19  1  0
 18 21  1  0
 19 20  1  0
 19 39  1  6
 19 40  1  0
 20 41  1  1
 20 42  1  0
 20 43  1  0
 21 22  1  0
 21 44  1  1
 21 45  1  0
 22 46  1  6
 22 47  1  0
 22 48  1  0
 23 24  1  0
 23 49  1  0
 24 25  1  0
M  END
$$$$
