ZINC000222882065
     RDKit          3D

 50 51  0  0  0  0  0  0  0  0999 V2000
   -0.0499    1.5014    0.0051 C   0  0  1  0  0  0  0  0  0  0  0  0
   -0.0212    0.0367    0.0021 N   0  0  0  0  0  0  0  0  0  0  0  0
    1.2617   -0.6708   -0.0090 C   0  0  1  0  0  0  0  0  0  0  0  0
   -1.4387   -0.8193    0.0113 S   0  0  1  0  0  0  0  0  0  0  0  0
   -1.1321   -2.0976    0.5510 O   0  0  0  0  0  0  0  0  0  0  0  0
   -2.4240    0.0421    0.5648 O   0  0  0  0  0  0  0  0  0  0  0  0
   -1.8980   -1.0857   -1.6688 C   0  0  0  0  0  0  0  0  0  0  0  0
   -2.6923   -0.1626   -2.3230 C   0  0  0  0  0  0  0  0  0  0  0  0
   -3.0526   -0.3716   -3.6411 C   0  0  0  0  0  0  0  0  0  0  0  0
   -2.6183   -1.5035   -4.3052 C   0  0  0  0  0  0  0  0  0  0  0  0
   -3.0115   -1.7317   -5.7420 C   0  0  1  0  0  0  0  0  0  0  0  0
   -1.9653   -1.1011   -6.6633 C   0  0  1  0  0  0  0  0  0  0  0  0
   -2.3585   -1.3292   -8.1001 C   0  0  0  0  0  0  0  0  0  0  0  0
   -3.3754   -1.9364   -8.3615 O   0  0  0  0  0  0  0  0  0  0  0  0
   -1.5802   -0.8585   -9.0946 N   0  0  0  0  0  0  0  0  0  0  0  0
   -1.8925   -1.1528  -10.4265 C   0  0  0  0  0  0  0  0  0  0  0  0
   -0.8764   -1.3584  -11.3504 C   0  0  0  0  0  0  0  0  0  0  0  0
   -1.1880   -1.6486  -12.6642 C   0  0  0  0  0  0  0  0  0  0  0  0
   -2.5102   -1.7341  -13.0601 C   0  0  0  0  0  0  0  0  0  0  0  0
   -2.8466   -2.0504  -14.4946 C   0  0  1  0  0  0  0  0  0  0  0  0
   -2.9609   -3.5433  -14.6663 C   0  0  0  0  0  0  0  0  0  0  0  0
   -3.2570   -4.0619  -15.8745 N   0  0  0  0  0  0  0  0  0  0  0  0
   -2.7863   -4.2779  -13.7173 O   0  0  0  0  0  0  0  0  0  0  0  0
   -3.5244   -1.5303  -12.1424 C   0  0  0  0  0  0  0  0  0  0  0  0
   -3.2194   -1.2454  -10.8259 C   0  0  0  0  0  0  0  0  0  0  0  0
   -1.8229   -2.4260   -3.6514 C   0  0  0  0  0  0  0  0  0  0  0  0
   -1.4594   -2.2151   -2.3345 C   0  0  0  0  0  0  0  0  0  0  0  0
    0.9704    1.8848   -0.0019 H   0  0  0  0  0  0  0  0  0  0  0  0
   -0.5775    1.8562   -0.8802 H   0  0  0  0  0  0  0  0  0  0  0  0
   -0.5640    1.8529    0.8997 H   0  0  0  0  0  0  0  0  0  0  0  0
    1.5876   -0.8482    1.0159 H   0  0  0  0  0  0  0  0  0  0  0  0
    1.1461   -1.6246   -0.5237 H   0  0  0  0  0  0  0  0  0  0  0  0
    2.0057   -0.0660   -0.5273 H   0  0  0  0  0  0  0  0  0  0  0  0
   -3.0316    0.7217   -1.8041 H   0  0  0  0  0  0  0  0  0  0  0  0
   -3.6737    0.3492   -4.1519 H   0  0  0  0  0  0  0  0  0  0  0  0
   -3.0694   -2.8025   -5.9372 H   0  0  0  0  0  0  0  0  0  0  0  0
   -3.9833   -1.2751   -5.9296 H   0  0  0  0  0  0  0  0  0  0  0  0
   -1.9074   -0.0303   -6.4681 H   0  0  0  0  0  0  0  0  0  0  0  0
   -0.9935   -1.5577   -6.4757 H   0  0  0  0  0  0  0  0  0  0  0  0
   -0.8035   -0.3158   -8.8872 H   0  0  0  0  0  0  0  0  0  0  0  0
    0.1564   -1.2911  -11.0420 H   0  0  0  0  0  0  0  0  0  0  0  0
   -0.3982   -1.8086  -13.3833 H   0  0  0  0  0  0  0  0  0  0  0  0
   -3.7945   -1.5809  -14.7576 H   0  0  0  0  0  0  0  0  0  0  0  0
   -2.0595   -1.6691  -15.1450 H   0  0  0  0  0  0  0  0  0  0  0  0
   -3.3966   -3.4743  -16.6336 H   0  0  0  0  0  0  0  0  0  0  0  0
   -3.3305   -5.0228  -15.9851 H   0  0  0  0  0  0  0  0  0  0  0  0
   -4.5560   -1.5977  -12.4547 H   0  0  0  0  0  0  0  0  0  0  0  0
   -4.0119   -1.0863  -10.1096 H   0  0  0  0  0  0  0  0  0  0  0  0
   -1.4832   -3.3101   -4.1704 H   0  0  0  0  0  0  0  0  0  0  0  0
   -0.8380   -2.9357   -1.8238 H   0  0  0  0  0  0  0  0  0  0  0  0
  1  2  1  0
  1 28  1  6
  1 29  1  0
  1 30  1  0
  2  3  1  0
  4  2  1  6
  3 31  1  1
  3 32  1  0
  3 33  1  0
  4  5  2  0
  4  6  2  0
  4  7  1  0
  7 27  2  0
  7  8  1  0
  8  9  2  0
  8 34  1  0
  9 10  1  0
  9 35  1  0
 10 11  1  0
 10 26  2  0
 11 12  1  0
 11 36  1  6
 11 37  1  0
 12 13  1  0
 12 38  1  1
 12 39  1  0
 13 14  2  0
 13 15  1  0
 15 16  1  0
 15 40  1  0
 16 25  2  0
 16 17  1  0
 17 18  2  0
 17 41  1  0
 18 19  1  0
 18 42  1  0
 19 20  1  0
 19 24  2  0
 20 21  1  0
 20 43  1  6
 20 44  1  0
 21 22  1  0
 21 23  2  0
 22 45  1  0
 22 46  1  0
 24 25  1  0
 24 47  1  0
 25 48  1  0
 26 27  1  0
 26 49  1  0
 27 50  1  0
M  END
$$$$
