ZINC000012917008
     RDKit          3D

 63 66  0  0  1  0  0  0  0  0999 V2000
    2.0997    3.4327    1.9474 O   0  0  0  0  0  0  0  0  0  0  0  0
    1.5762    3.4977    3.2668 S   0  0  1  0  0  0  0  0  0  0  0  0
    2.1428    2.7936    4.3634 O   0  0  0  0  0  0  0  0  0  0  0  0
    1.5730    5.2011    3.7175 C   0  0  0  0  0  0  0  0  0  0  0  0
    1.5454    6.1753    2.7372 C   0  0  0  0  0  0  0  0  0  0  0  0
    1.5429    7.5117    3.0908 C   0  0  0  0  0  0  0  0  0  0  0  0
    1.5676    7.8738    4.4246 C   0  0  0  0  0  0  0  0  0  0  0  0
    1.5654    9.3307    4.8100 C   0  0  1  0  0  0  0  0  0  0  0  0
    0.2460    9.7724    4.9561 F   0  0  0  0  0  0  0  0  0  0  0  0
    2.2485    9.4940    6.0199 F   0  0  0  0  0  0  0  0  0  0  0  0
    2.1995   10.0781    3.8118 F   0  0  0  0  0  0  0  0  0  0  0  0
    1.5938    6.8996    5.4049 C   0  0  0  0  0  0  0  0  0  0  0  0
    1.5924    5.5632    5.0514 C   0  0  0  0  0  0  0  0  0  0  0  0
   -0.0045    3.0141    3.1671 N   0  0  0  0  0  0  0  0  0  0  0  0
   -0.7051    2.4765    4.3433 C   0  0  1  0  0  0  0  0  0  0  0  0
   -2.0276    3.2325    4.5097 C   0  0  1  0  0  0  0  0  0  0  0  0
   -2.7854    3.1696    3.2529 N   0  0  0  0  0  0  0  0  0  0  0  0
   -4.1316    3.7330    3.4211 C   0  0  1  0  0  0  0  0  0  0  0  0
   -5.0051    2.7443    4.1959 C   0  0  2  0  0  0  0  0  0  0  0  0
   -4.5301    2.5088    5.1483 H   0  0  0  0  0  0  0  0  0  0  0  0
   -5.1610    1.5465    3.4323 O   0  0  0  0  0  0  0  0  0  0  0  0
   -6.3784    3.3686    4.4514 C   0  0  1  0  0  0  0  0  0  0  0  0
   -7.1535    2.4942    5.2739 O   0  0  0  0  0  0  0  0  0  0  0  0
   -8.4949    2.9368    5.4902 C   0  0  2  0  0  0  0  0  0  0  0  0
   -8.8331    3.4978    4.6189 H   0  0  0  0  0  0  0  0  0  0  0  0
   -8.5343    3.8430    6.7189 C   0  0  1  0  0  0  0  0  0  0  0  0
  -10.0007    4.1302    7.0620 C   0  0  1  0  0  0  0  0  0  0  0  0
  -10.6328    2.8442    7.5906 C   0  0  1  0  0  0  0  0  0  0  0  0
  -10.3750    1.7002    6.6451 C   0  0  0  0  0  0  0  0  0  0  0  0
  -11.1754    0.5715    6.7625 C   0  0  0  0  0  0  0  0  0  0  0  0
  -10.9856   -0.5122    5.9298 C   0  0  0  0  0  0  0  0  0  0  0  0
   -9.9906   -0.4752    4.9712 C   0  0  0  0  0  0  0  0  0  0  0  0
   -9.1959    0.6463    4.8514 C   0  0  0  0  0  0  0  0  0  0  0  0
   -9.3875    1.7395    5.6870 C   0  0  0  0  0  0  0  0  0  0  0  0
   -2.0659    3.8417    2.1627 C   0  0  1  0  0  0  0  0  0  0  0  0
   -0.7468    3.1164    1.9015 C   0  0  1  0  0  0  0  0  0  0  0  0
    1.5262    5.8924    1.6951 H   0  0  0  0  0  0  0  0  0  0  0  0
    1.5221    8.2729    2.3249 H   0  0  0  0  0  0  0  0  0  0  0  0
    1.6127    7.1825    6.4470 H   0  0  0  0  0  0  0  0  0  0  0  0
    1.6129    4.8020    5.8173 H   0  0  0  0  0  0  0  0  0  0  0  0
   -0.9059    1.4153    4.1965 H   0  0  0  0  0  0  0  0  0  0  0  0
   -0.0892    2.6160    5.2317 H   0  0  0  0  0  0  0  0  0  0  0  0
   -2.6102    2.7745    5.3091 H   0  0  0  0  0  0  0  0  0  0  0  0
   -1.8225    4.2735    4.7592 H   0  0  0  0  0  0  0  0  0  0  0  0
   -4.0667    4.6706    3.9732 H   0  0  0  0  0  0  0  0  0  0  0  0
   -4.5731    3.9179    2.4418 H   0  0  0  0  0  0  0  0  0  0  0  0
   -5.5781    1.6811    2.5704 H   0  0  0  0  0  0  0  0  0  0  0  0
   -6.2537    4.3266    4.9562 H   0  0  0  0  0  0  0  0  0  0  0  0
   -6.8900    3.5223    3.5014 H   0  0  0  0  0  0  0  0  0  0  0  0
   -8.0519    3.3434    7.5590 H   0  0  0  0  0  0  0  0  0  0  0  0
   -8.0182    4.7783    6.5019 H   0  0  0  0  0  0  0  0  0  0  0  0
  -10.0539    4.9062    7.8256 H   0  0  0  0  0  0  0  0  0  0  0  0
  -10.5296    4.4583    6.1671 H   0  0  0  0  0  0  0  0  0  0  0  0
  -10.2058    2.6081    8.5653 H   0  0  0  0  0  0  0  0  0  0  0  0
  -11.7081    2.9887    7.6953 H   0  0  0  0  0  0  0  0  0  0  0  0
  -11.9524    0.5415    7.5120 H   0  0  0  0  0  0  0  0  0  0  0  0
  -11.6123   -1.3865    6.0270 H   0  0  0  0  0  0  0  0  0  0  0  0
   -9.8354   -1.3215    4.3184 H   0  0  0  0  0  0  0  0  0  0  0  0
   -8.4182    0.6742    4.1025 H   0  0  0  0  0  0  0  0  0  0  0  0
   -2.6763    3.8255    1.2598 H   0  0  0  0  0  0  0  0  0  0  0  0
   -1.8603    4.8743    2.4448 H   0  0  0  0  0  0  0  0  0  0  0  0
   -0.1587    3.6764    1.1745 H   0  0  0  0  0  0  0  0  0  0  0  0
   -0.9486    2.1153    1.5203 H   0  0  0  0  0  0  0  0  0  0  0  0
  1  2  2  0
  2  3  2  0
  2  4  1  0
  2 14  1  6
  4 13  2  0
  4  5  1  0
  5  6  2  0
  5 37  1  0
  6  7  1  0
  6 38  1  0
  7  8  1  0
  7 12  2  0
  8  9  1  1
  8 10  1  0
  8 11  1  0
 12 13  1  0
 12 39  1  0
 13 40  1  0
 14 36  1  0
 14 15  1  0
 15 16  1  0
 15 41  1  6
 15 42  1  0
 16 17  1  0
 16 43  1  1
 16 44  1  0
 17 18  1  0
 17 35  1  0
 18 19  1  0
 18 45  1  1
 18 46  1  0
 19 20  1  1
 19 21  1  0
 19 22  1  0
 21 47  1  0
 22 23  1  0
 22 48  1  1
 22 49  1  0
 23 24  1  0
 24 25  1  6
 24 34  1  0
 24 26  1  0
 26 27  1  0
 26 50  1  1
 26 51  1  0
 27 28  1  0
 27 52  1  1
 27 53  1  0
 28 29  1  0
 28 54  1  1
 28 55  1  0
 29 34  2  0
 29 30  1  0
 30 31  2  0
 30 56  1  0
 31 32  1  0
 31 57  1  0
 32 33  2  0
 32 58  1  0
 33 34  1  0
 33 59  1  0
 35 36  1  0
 35 60  1  6
 35 61  1  0
 36 62  1  6
 36 63  1  0
M  END
$$$$
