ZINC000020032583
     RDKit          3D

 60 62  0  0  0  0  0  0  0  0999 V2000
   -0.0178    1.4608    0.0101 C   0  0  1  0  0  0  0  0  0  0  0  0
    0.0021   -0.0041    0.0020 N   0  0  0  0  0  0  0  0  0  0  0  0
    0.0241   -0.7433    1.2666 C   0  0  1  0  0  0  0  0  0  0  0  0
   -0.0004   -0.8243   -1.4366 S   0  0  1  0  0  0  0  0  0  0  0  0
   -0.5247   -2.1160   -1.1611 O   0  0  0  0  0  0  0  0  0  0  0  0
   -0.5660    0.0551   -2.3989 O   0  0  0  0  0  0  0  0  0  0  0  0
    1.6816   -1.0597   -1.9056 C   0  0  0  0  0  0  0  0  0  0  0  0
    2.3234   -0.1095   -2.6777 C   0  0  0  0  0  0  0  0  0  0  0  0
    3.6430   -0.2942   -3.0457 C   0  0  0  0  0  0  0  0  0  0  0  0
    4.3210   -1.4289   -2.6412 C   0  0  0  0  0  0  0  0  0  0  0  0
    5.7594   -1.6304   -3.0428 C   0  0  1  0  0  0  0  0  0  0  0  0
    6.6369   -1.0418   -2.0280 N   0  0  0  0  0  0  0  0  0  0  0  0
    7.9750   -1.1025   -2.1769 C   0  0  0  0  0  0  0  0  0  0  0  0
    8.4528   -1.6443   -3.1511 O   0  0  0  0  0  0  0  0  0  0  0  0
    8.8776   -0.4970   -1.1330 C   0  0  1  0  0  0  0  0  0  0  0  0
   10.2416   -0.6882   -1.5138 O   0  0  0  0  0  0  0  0  0  0  0  0
   11.1910   -0.1974   -0.6744 C   0  0  0  0  0  0  0  0  0  0  0  0
   10.8177    0.4496    0.4946 C   0  0  0  0  0  0  0  0  0  0  0  0
   11.7847    0.9472    1.3464 C   0  0  0  0  0  0  0  0  0  0  0  0
   13.1238    0.8011    1.0345 C   0  0  0  0  0  0  0  0  0  0  0  0
   14.3549    1.4374    2.1228 S   0  0  1  0  0  0  0  0  0  0  0  0
   15.5188    1.6448    1.3346 O   0  0  0  0  0  0  0  0  0  0  0  0
   13.7312    2.4695    2.8746 O   0  0  0  0  0  0  0  0  0  0  0  0
   14.7269    0.2347    3.1987 N   0  0  0  0  0  0  0  0  0  0  0  0
   13.9907    0.0971    4.4654 C   0  0  1  0  0  0  0  0  0  0  0  0
   13.5291   -1.3584    4.6006 C   0  0  1  0  0  0  0  0  0  0  0  0
   14.6506   -2.2266    4.4205 O   0  0  0  0  0  0  0  0  0  0  0  0
   15.2533   -2.1435    3.1268 C   0  0  1  0  0  0  0  0  0  0  0  0
   15.7994   -0.7316    2.9135 C   0  0  1  0  0  0  0  0  0  0  0  0
   13.4985    0.1563   -0.1297 C   0  0  0  0  0  0  0  0  0  0  0  0
   12.5354   -0.3477   -0.9822 C   0  0  0  0  0  0  0  0  0  0  0  0
    3.6797   -2.3784   -1.8680 C   0  0  0  0  0  0  0  0  0  0  0  0
    2.3612   -2.1919   -1.4968 C   0  0  0  0  0  0  0  0  0  0  0  0
    1.0048    1.8381    0.0023 H   0  0  0  0  0  0  0  0  0  0  0  0
   -0.5450    1.8219   -0.8730 H   0  0  0  0  0  0  0  0  0  0  0  0
   -0.5280    1.8123    0.9069 H   0  0  0  0  0  0  0  0  0  0  0  0
    0.0224   -0.0395    2.0990 H   0  0  0  0  0  0  0  0  0  0  0  0
   -0.8567   -1.3823    1.3294 H   0  0  0  0  0  0  0  0  0  0  0  0
    0.9230   -1.3581    1.3125 H   0  0  0  0  0  0  0  0  0  0  0  0
    1.7936    0.7771   -2.9938 H   0  0  0  0  0  0  0  0  0  0  0  0
    4.1441    0.4479   -3.6495 H   0  0  0  0  0  0  0  0  0  0  0  0
    5.9668   -2.6971   -3.1279 H   0  0  0  0  0  0  0  0  0  0  0  0
    5.9396   -1.1475   -4.0032 H   0  0  0  0  0  0  0  0  0  0  0  0
    6.2547   -0.6085   -1.2488 H   0  0  0  0  0  0  0  0  0  0  0  0
    8.6702    0.5697   -1.0478 H   0  0  0  0  0  0  0  0  0  0  0  0
    8.6973   -0.9800   -0.1725 H   0  0  0  0  0  0  0  0  0  0  0  0
    9.7718    0.5646    0.7384 H   0  0  0  0  0  0  0  0  0  0  0  0
   11.4946    1.4510    2.2566 H   0  0  0  0  0  0  0  0  0  0  0  0
   14.6438    0.3541    5.2993 H   0  0  0  0  0  0  0  0  0  0  0  0
   13.1240    0.7581    4.4599 H   0  0  0  0  0  0  0  0  0  0  0  0
   13.1032   -1.5147    5.5917 H   0  0  0  0  0  0  0  0  0  0  0  0
   12.7766   -1.5737    3.8420 H   0  0  0  0  0  0  0  0  0  0  0  0
   16.0677   -2.8646    3.0576 H   0  0  0  0  0  0  0  0  0  0  0  0
   14.5070   -2.3616    2.3628 H   0  0  0  0  0  0  0  0  0  0  0  0
   16.1325   -0.6188    1.8818 H   0  0  0  0  0  0  0  0  0  0  0  0
   16.6349   -0.5549    3.5910 H   0  0  0  0  0  0  0  0  0  0  0  0
   14.5452    0.0431   -0.3710 H   0  0  0  0  0  0  0  0  0  0  0  0
   12.8286   -0.8514   -1.8915 H   0  0  0  0  0  0  0  0  0  0  0  0
    4.2095   -3.2648   -1.5516 H   0  0  0  0  0  0  0  0  0  0  0  0
    1.8602   -2.9338   -0.8927 H   0  0  0  0  0  0  0  0  0  0  0  0
  1  2  1  0
  1 34  1  6
  1 35  1  0
  1 36  1  0
  2  3  1  0
  4  2  1  1
  3 37  1  1
  3 38  1  0
  3 39  1  0
  4  5  2  0
  4  6  2  0
  4  7  1  0
  7 33  2  0
  7  8  1  0
  8  9  2  0
  8 40  1  0
  9 10  1  0
  9 41  1  0
 10 11  1  0
 10 32  2  0
 11 12  1  0
 11 42  1  6
 11 43  1  0
 12 13  1  0
 12 44  1  0
 13 14  2  0
 13 15  1  0
 15 16  1  0
 15 45  1  1
 15 46  1  0
 16 17  1  0
 17 31  2  0
 17 18  1  0
 18 19  2  0
 18 47  1  0
 19 20  1  0
 19 48  1  0
 20 21  1  0
 20 30  2  0
 21 22  2  0
 21 23  2  0
 21 24  1  1
 24 29  1  0
 24 25  1  0
 25 26  1  0
 25 49  1  1
 25 50  1  0
 26 27  1  0
 26 51  1  1
 26 52  1  0
 27 28  1  0
 28 29  1  0
 28 53  1  1
 28 54  1  0
 29 55  1  6
 29 56  1  0
 30 31  1  0
 30 57  1  0
 31 58  1  0
 32 33  1  0
 32 59  1  0
 33 60  1  0
M  END
$$$$
