ZINC000065337336
     RDKit          3D

 33 34  0  0  1  0  0  0  0  0999 V2000
   -0.0187    1.5258    0.0104 C   0  0  1  0  0  0  0  0  0  0  0  0
    0.0021   -0.0041    0.0020 C   0  0  1  0  0  0  0  0  0  0  0  0
    0.7421   -0.5109    1.2415 C   0  0  1  0  0  0  0  0  0  0  0  0
   -1.4333   -0.5336    0.0129 C   0  0  1  0  0  0  0  0  0  0  0  0
    0.6878   -0.4765   -1.2033 N   0  0  0  0  0  0  0  0  0  0  0  0
    0.1460   -1.2500   -2.1599 C   0  0  0  0  0  0  0  0  0  0  0  0
   -0.9966   -1.6647   -2.1536 O   0  0  0  0  0  0  0  0  0  0  0  0
    1.1362   -1.5229   -3.2191 C   0  0  0  0  0  0  0  0  0  0  0  0
    1.0680   -2.2591   -4.4030 C   0  0  0  0  0  0  0  0  0  0  0  0
    2.1749   -2.3452   -5.2223 C   0  0  0  0  0  0  0  0  0  0  0  0
    2.1015   -3.1396   -6.5008 C   0  0  1  0  0  0  0  0  0  0  0  0
    1.6833   -2.3065   -7.5441 F   0  0  0  0  0  0  0  0  0  0  0  0
    3.3648   -3.6616   -6.7987 F   0  0  0  0  0  0  0  0  0  0  0  0
    1.1882   -4.1881   -6.3466 F   0  0  0  0  0  0  0  0  0  0  0  0
    3.3516   -1.7054   -4.8760 C   0  0  0  0  0  0  0  0  0  0  0  0
    3.4270   -0.9730   -3.7028 C   0  0  0  0  0  0  0  0  0  0  0  0
    2.3295   -0.8808   -2.8790 C   0  0  0  0  0  0  0  0  0  0  0  0
    2.0773   -0.1782   -1.5684 C   0  0  2  0  0  0  0  0  0  0  0  0
    2.2123    0.8968   -1.6877 H   0  0  0  0  0  0  0  0  0  0  0  0
    2.9654   -0.6759   -0.5656 O   0  0  0  0  0  0  0  0  0  0  0  0
    1.0039    1.9031    0.0027 H   0  0  0  0  0  0  0  0  0  0  0  0
   -0.5459    1.8868   -0.8726 H   0  0  0  0  0  0  0  0  0  0  0  0
   -0.5289    1.8773    0.9072 H   0  0  0  0  0  0  0  0  0  0  0  0
    0.2319   -0.1594    2.1383 H   0  0  0  0  0  0  0  0  0  0  0  0
    0.7568   -1.6008    1.2356 H   0  0  0  0  0  0  0  0  0  0  0  0
    1.7647   -0.1336    1.2338 H   0  0  0  0  0  0  0  0  0  0  0  0
   -1.9605   -0.1726   -0.8702 H   0  0  0  0  0  0  0  0  0  0  0  0
   -1.4185   -1.6235    0.0069 H   0  0  0  0  0  0  0  0  0  0  0  0
   -1.9435   -0.1821    0.9097 H   0  0  0  0  0  0  0  0  0  0  0  0
    0.1514   -2.7604   -4.6768 H   0  0  0  0  0  0  0  0  0  0  0  0
    4.2140   -1.7776   -5.5221 H   0  0  0  0  0  0  0  0  0  0  0  0
    4.3471   -0.4749   -3.4349 H   0  0  0  0  0  0  0  0  0  0  0  0
    3.9012   -0.5329   -0.7629 H   0  0  0  0  0  0  0  0  0  0  0  0
  1  2  1  0
  1 21  1  6
  1 22  1  0
  1 23  1  0
  2  3  1  0
  2  4  1  0
  2  5  1  6
  3 24  1  1
  3 25  1  0
  3 26  1  0
  4 27  1  6
  4 28  1  0
  4 29  1  0
  5 18  1  0
  5  6  1  0
  6  7  2  0
  6  8  1  0
  8 17  2  0
  8  9  1  0
  9 10  2  0
  9 30  1  0
 10 11  1  0
 10 15  1  0
 11 12  1  6
 11 13  1  0
 11 14  1  0
 15 16  2  0
 15 31  1  0
 16 17  1  0
 16 32  1  0
 17 18  1  0
 18 19  1  6
 18 20  1  0
 20 33  1  0
M  END
$$$$
