ZINC000006111937
     RDKit          3D

 57 58  0  0  0  0  0  0  0  0999 V2000
   -0.0173    1.4248    0.0099 C   0  0  1  0  0  0  0  0  0  0  0  0
    0.0021   -0.0041    0.0020 O   0  0  0  0  0  0  0  0  0  0  0  0
   -1.2953   -0.6030    0.0112 C   0  0  1  0  0  0  0  0  0  0  0  0
   -1.1538   -2.1264    0.0017 C   0  0  1  0  0  0  0  0  0  0  0  0
   -2.5429   -2.7677    0.0115 C   0  0  1  0  0  0  0  0  0  0  0  0
   -2.4075   -4.2264    0.0023 N   0  0  0  0  0  0  0  0  0  0  0  0
   -2.2176   -4.9523    1.2606 C   0  0  1  0  0  0  0  0  0  0  0  0
   -3.5592   -5.2254    1.8904 C   0  0  0  0  0  0  0  0  0  0  0  0
   -4.5740   -4.8505    1.3422 O   0  0  0  0  0  0  0  0  0  0  0  0
   -3.6312   -5.8861    3.0629 N   0  0  0  0  0  0  0  0  0  0  0  0
   -4.9354   -6.1516    3.6751 C   0  0  1  0  0  0  0  0  0  0  0  0
   -4.7371   -6.9097    4.9892 C   0  0  1  0  0  0  0  0  0  0  0  0
   -6.0787   -7.1828    5.6190 C   0  0  0  0  0  0  0  0  0  0  0  0
   -6.6303   -6.2647    6.4934 C   0  0  0  0  0  0  0  0  0  0  0  0
   -7.8600   -6.5127    7.0721 C   0  0  0  0  0  0  0  0  0  0  0  0
   -8.5416   -7.6838    6.7748 C   0  0  0  0  0  0  0  0  0  0  0  0
   -9.7517   -7.9299    7.3424 O   0  0  0  0  0  0  0  0  0  0  0  0
  -10.3961   -9.1558    6.9904 C   0  0  1  0  0  0  0  0  0  0  0  0
   -7.9862   -8.6032    5.8968 C   0  0  0  0  0  0  0  0  0  0  0  0
   -6.7584   -8.3483    5.3170 C   0  0  0  0  0  0  0  0  0  0  0  0
   -2.4690   -5.0547   -1.4303 S   0  0  1  0  0  0  0  0  0  0  0  0
   -3.0080   -6.3349   -1.1307 O   0  0  0  0  0  0  0  0  0  0  0  0
   -3.0478   -4.1707   -2.3804 O   0  0  0  0  0  0  0  0  0  0  0  0
   -0.8067   -5.3237   -1.9490 C   0  0  0  0  0  0  0  0  0  0  0  0
   -0.1718   -4.3899   -2.7464 C   0  0  0  0  0  0  0  0  0  0  0  0
    1.1323   -4.6009   -3.1534 C   0  0  0  0  0  0  0  0  0  0  0  0
    1.8017   -5.7455   -2.7626 C   0  0  0  0  0  0  0  0  0  0  0  0
    1.1671   -6.6789   -1.9645 C   0  0  0  0  0  0  0  0  0  0  0  0
   -0.1356   -6.4658   -1.5540 C   0  0  0  0  0  0  0  0  0  0  0  0
    1.0053    1.8021    0.0021 H   0  0  0  0  0  0  0  0  0  0  0  0
   -0.5445    1.7859   -0.8732 H   0  0  0  0  0  0  0  0  0  0  0  0
   -0.5275    1.7763    0.9067 H   0  0  0  0  0  0  0  0  0  0  0  0
   -1.8320   -0.2936    0.9080 H   0  0  0  0  0  0  0  0  0  0  0  0
   -1.8490   -0.2840   -0.8718 H   0  0  0  0  0  0  0  0  0  0  0  0
   -0.6171   -2.4359   -0.8952 H   0  0  0  0  0  0  0  0  0  0  0  0
   -0.6001   -2.4454    0.8847 H   0  0  0  0  0  0  0  0  0  0  0  0
   -3.0796   -2.4582    0.9083 H   0  0  0  0  0  0  0  0  0  0  0  0
   -3.0966   -2.4487   -0.8716 H   0  0  0  0  0  0  0  0  0  0  0  0
   -1.7103   -5.8965    1.0624 H   0  0  0  0  0  0  0  0  0  0  0  0
   -1.6132   -4.3507    1.9395 H   0  0  0  0  0  0  0  0  0  0  0  0
   -2.8196   -6.1859    3.5013 H   0  0  0  0  0  0  0  0  0  0  0  0
   -5.4427   -5.2074    3.8734 H   0  0  0  0  0  0  0  0  0  0  0  0
   -5.5398   -6.7532    2.9962 H   0  0  0  0  0  0  0  0  0  0  0  0
   -4.2298   -7.8539    4.7910 H   0  0  0  0  0  0  0  0  0  0  0  0
   -4.1327   -6.3081    5.6681 H   0  0  0  0  0  0  0  0  0  0  0  0
   -6.0992   -5.3531    6.7245 H   0  0  0  0  0  0  0  0  0  0  0  0
   -8.2901   -5.7956    7.7556 H   0  0  0  0  0  0  0  0  0  0  0  0
  -11.3508   -9.2271    7.5116 H   0  0  0  0  0  0  0  0  0  0  0  0
  -10.5670   -9.1805    5.9142 H   0  0  0  0  0  0  0  0  0  0  0  0
   -9.7621   -9.9949    7.2770 H   0  0  0  0  0  0  0  0  0  0  0  0
   -8.5148   -9.5158    5.6640 H   0  0  0  0  0  0  0  0  0  0  0  0
   -6.3258   -9.0635    4.6332 H   0  0  0  0  0  0  0  0  0  0  0  0
   -0.6948   -3.4956   -3.0517 H   0  0  0  0  0  0  0  0  0  0  0  0
    1.6281   -3.8717   -3.7770 H   0  0  0  0  0  0  0  0  0  0  0  0
    2.8203   -5.9108   -3.0812 H   0  0  0  0  0  0  0  0  0  0  0  0
    1.6899   -7.5733   -1.6595 H   0  0  0  0  0  0  0  0  0  0  0  0
   -0.6314   -7.1950   -0.9304 H   0  0  0  0  0  0  0  0  0  0  0  0
  1  2  1  0
  1 30  1  6
  1 31  1  0
  1 32  1  0
  2  3  1  0
  3  4  1  0
  3 33  1  1
  3 34  1  0
  4  5  1  0
  4 35  1  6
  4 36  1  0
  5  6  1  0
  5 37  1  1
  5 38  1  0
  6  7  1  0
 21  6  1  1
  7  8  1  0
  7 39  1  6
  7 40  1  0
  8  9  2  0
  8 10  1  0
 10 11  1  0
 10 41  1  0
 11 12  1  0
 11 42  1  1
 11 43  1  0
 12 13  1  0
 12 44  1  6
 12 45  1  0
 13 20  2  0
 13 14  1  0
 14 15  2  0
 14 46  1  0
 15 16  1  0
 15 47  1  0
 16 17  1  0
 16 19  2  0
 17 18  1  0
 18 48  1  1
 18 49  1  0
 18 50  1  0
 19 20  1  0
 19 51  1  0
 20 52  1  0
 21 22  2  0
 21 23  2  0
 21 24  1  0
 24 29  2  0
 24 25  1  0
 25 26  2  0
 25 53  1  0
 26 27  1  0
 26 54  1  0
 27 28  2  0
 27 55  1  0
 28 29  1  0
 28 56  1  0
 29 57  1  0
M  END
$$$$
