ZINC000071924172
     RDKit          3D

 43 45  0  0  0  0  0  0  0  0999 V2000
   -0.0184    1.5028    0.0103 C   0  0  1  0  0  0  0  0  0  0  0  0
    0.0021   -0.0041    0.0020 C   0  0  0  0  0  0  0  0  0  0  0  0
    0.0057   -0.6887   -1.1989 C   0  0  0  0  0  0  0  0  0  0  0  0
    0.0245   -2.0709   -1.2065 C   0  0  0  0  0  0  0  0  0  0  0  0
    0.0400   -2.7685   -0.0132 C   0  0  0  0  0  0  0  0  0  0  0  0
    0.0633   -4.5303   -0.0229 S   0  0  1  0  0  0  0  0  0  0  0  0
   -0.4690   -4.9455    1.2275 O   0  0  0  0  0  0  0  0  0  0  0  0
   -0.4824   -4.9319   -1.2719 O   0  0  0  0  0  0  0  0  0  0  0  0
    1.6514   -4.9995   -0.0340 N   0  0  0  0  0  0  0  0  0  0  0  0
    2.6634   -5.2876   -1.0615 C   0  0  1  0  0  0  0  0  0  0  0  0
    3.3407   -6.2268   -0.0539 C   0  0  1  0  0  0  0  0  0  0  0  0
    4.8690   -6.1550   -0.0587 C   0  0  1  0  0  0  0  0  0  0  0  0
    5.4239   -7.2000    0.8747 C   0  0  0  0  0  0  0  0  0  0  0  0
    5.6389   -6.8940    2.2055 C   0  0  0  0  0  0  0  0  0  0  0  0
    6.1479   -7.8525    3.0616 C   0  0  0  0  0  0  0  0  0  0  0  0
    6.4414   -9.1173    2.5870 C   0  0  0  0  0  0  0  0  0  0  0  0
    6.9968  -10.1621    3.5203 C   0  0  1  0  0  0  0  0  0  0  0  0
    5.9432  -10.8784    4.0984 F   0  0  0  0  0  0  0  0  0  0  0  0
    7.8184  -11.0385    2.8032 F   0  0  0  0  0  0  0  0  0  0  0  0
    7.7443   -9.5395    4.5256 F   0  0  0  0  0  0  0  0  0  0  0  0
    6.2251   -9.4237    1.2566 C   0  0  0  0  0  0  0  0  0  0  0  0
    5.7125   -8.4663    0.4013 C   0  0  0  0  0  0  0  0  0  0  0  0
    2.6724   -5.3050    0.9795 C   0  0  1  0  0  0  0  0  0  0  0  0
    0.0378   -2.0839    1.1877 C   0  0  0  0  0  0  0  0  0  0  0  0
    0.0229   -0.7016    1.1953 C   0  0  0  0  0  0  0  0  0  0  0  0
    1.0042    1.8801    0.0026 H   0  0  0  0  0  0  0  0  0  0  0  0
   -0.5455    1.8639   -0.8728 H   0  0  0  0  0  0  0  0  0  0  0  0
   -0.5286    1.8543    0.9071 H   0  0  0  0  0  0  0  0  0  0  0  0
   -0.0064   -0.1436   -2.1312 H   0  0  0  0  0  0  0  0  0  0  0  0
    0.0266   -2.6057   -2.1448 H   0  0  0  0  0  0  0  0  0  0  0  0
    2.2617   -5.8035   -1.9336 H   0  0  0  0  0  0  0  0  0  0  0  0
    3.2720   -4.4228   -1.3259 H   0  0  0  0  0  0  0  0  0  0  0  0
    2.9573   -7.2470   -0.0663 H   0  0  0  0  0  0  0  0  0  0  0  0
    5.2381   -6.3366   -1.0681 H   0  0  0  0  0  0  0  0  0  0  0  0
    5.1874   -5.1664    0.2723 H   0  0  0  0  0  0  0  0  0  0  0  0
    5.4096   -5.9059    2.5762 H   0  0  0  0  0  0  0  0  0  0  0  0
    6.3166   -7.6132    4.1011 H   0  0  0  0  0  0  0  0  0  0  0  0
    6.4541  -10.4119    0.8859 H   0  0  0  0  0  0  0  0  0  0  0  0
    5.5435   -8.7057   -0.6382 H   0  0  0  0  0  0  0  0  0  0  0  0
    3.2850   -4.4468    1.2560 H   0  0  0  0  0  0  0  0  0  0  0  0
    2.2769   -5.8374    1.8445 H   0  0  0  0  0  0  0  0  0  0  0  0
    0.0503   -2.6289    2.1200 H   0  0  0  0  0  0  0  0  0  0  0  0
    0.0211   -0.1667    2.1335 H   0  0  0  0  0  0  0  0  0  0  0  0
  1  2  1  0
  1 26  1  6
  1 27  1  0
  1 28  1  0
  2 25  2  0
  2  3  1  0
  3  4  2  0
  3 29  1  0
  4  5  1  0
  4 30  1  0
  5  6  1  0
  5 24  2  0
  6  7  2  0
  6  8  2  0
  6  9  1  6
  9 23  1  0
  9 10  1  0
 10 11  1  0
 10 31  1  6
 10 32  1  0
 11 12  1  0
 11 23  1  0
 11 33  1  6
 12 13  1  0
 12 34  1  6
 12 35  1  0
 13 22  2  0
 13 14  1  0
 14 15  2  0
 14 36  1  0
 15 16  1  0
 15 37  1  0
 16 17  1  0
 16 21  2  0
 17 18  1  1
 17 19  1  0
 17 20  1  0
 21 22  1  0
 21 38  1  0
 22 39  1  0
 23 40  1  1
 23 41  1  0
 24 25  1  0
 24 42  1  0
 25 43  1  0
M  END
$$$$
