ZINC000012785920
     RDKit          3D

 55 57  0  0  0  0  0  0  0  0999 V2000
   -0.0182    1.4606    0.0100 C   0  0  1  0  0  0  0  0  0  0  0  0
    0.0009   -0.0042    0.0021 N   0  0  0  0  0  0  0  0  0  0  0  0
   -0.0900   -0.7900   -1.0984 C   0  0  0  0  0  0  0  0  0  0  0  0
   -0.0363   -2.0882   -0.7155 C   0  0  0  0  0  0  0  0  0  0  0  0
   -0.1148   -3.4884   -1.7822 S   0  0  1  0  0  0  0  0  0  0  0  0
   -0.5730   -4.5734   -0.9870 O   0  0  0  0  0  0  0  0  0  0  0  0
   -0.7766   -3.0566   -2.9632 O   0  0  0  0  0  0  0  0  0  0  0  0
    1.4383   -3.8557   -2.2242 N   0  0  0  0  0  0  0  0  0  0  0  0
    2.0394   -3.2499   -3.4201 C   0  0  1  0  0  0  0  0  0  0  0  0
    3.3649   -2.5908   -3.0258 C   0  0  1  0  0  0  0  0  0  0  0  0
    4.2551   -3.6220   -2.3286 C   0  0  1  0  0  0  0  0  0  0  0  0
    5.5734   -2.9862   -1.9695 C   0  0  0  0  0  0  0  0  0  0  0  0
    5.7805   -1.8232   -2.2441 O   0  0  0  0  0  0  0  0  0  0  0  0
    6.5223   -3.7100   -1.3432 N   0  0  0  0  0  0  0  0  0  0  0  0
    7.8038   -3.0919   -0.9942 C   0  0  1  0  0  0  0  0  0  0  0  0
    8.6807   -4.1071   -0.3076 C   0  0  0  0  0  0  0  0  0  0  0  0
    8.6309   -4.2466    1.0668 C   0  0  0  0  0  0  0  0  0  0  0  0
    9.4352   -5.1779    1.6967 C   0  0  0  0  0  0  0  0  0  0  0  0
   10.2891   -5.9700    0.9521 C   0  0  0  0  0  0  0  0  0  0  0  0
   11.1663   -6.9848    1.6387 C   0  0  1  0  0  0  0  0  0  0  0  0
   10.4876   -8.2051    1.7257 F   0  0  0  0  0  0  0  0  0  0  0  0
   12.3436   -7.1574    0.9030 F   0  0  0  0  0  0  0  0  0  0  0  0
   11.4820   -6.5341    2.9250 F   0  0  0  0  0  0  0  0  0  0  0  0
   10.3379   -5.8314   -0.4225 C   0  0  0  0  0  0  0  0  0  0  0  0
    9.5308   -4.9028   -1.0527 C   0  0  0  0  0  0  0  0  0  0  0  0
    3.5645   -4.1173   -1.0558 C   0  0  1  0  0  0  0  0  0  0  0  0
    2.2434   -4.7889   -1.4244 C   0  0  1  0  0  0  0  0  0  0  0  0
    0.0930   -2.1199    0.6765 C   0  0  0  0  0  0  0  0  0  0  0  0
    0.1200   -0.8116    1.1106 C   0  0  0  0  0  0  0  0  0  0  0  0
    0.2443   -0.3620    2.5013 C   0  0  0  0  0  0  0  0  0  0  0  0
    0.4466   -1.2611    3.4847 N   0  0  0  0  0  0  0  0  0  0  0  0
    0.1648    0.8229    2.7671 O   0  0  0  0  0  0  0  0  0  0  0  0
    1.0046    1.8373    0.0120 H   0  0  0  0  0  0  0  0  0  0  0  0
   -0.5368    1.8220   -0.8780 H   0  0  0  0  0  0  0  0  0  0  0  0
   -0.5367    1.8124    0.9019 H   0  0  0  0  0  0  0  0  0  0  0  0
   -0.1893   -0.4385   -2.1148 H   0  0  0  0  0  0  0  0  0  0  0  0
    2.2232   -4.0216   -4.1676 H   0  0  0  0  0  0  0  0  0  0  0  0
    1.3640   -2.4974   -3.8273 H   0  0  0  0  0  0  0  0  0  0  0  0
    3.8675   -2.2213   -3.9196 H   0  0  0  0  0  0  0  0  0  0  0  0
    3.1704   -1.7601   -2.3475 H   0  0  0  0  0  0  0  0  0  0  0  0
    4.4286   -4.4641   -2.9985 H   0  0  0  0  0  0  0  0  0  0  0  0
    6.3567   -4.6402   -1.1236 H   0  0  0  0  0  0  0  0  0  0  0  0
    8.2964   -2.7402   -1.9007 H   0  0  0  0  0  0  0  0  0  0  0  0
    7.6305   -2.2495   -0.3246 H   0  0  0  0  0  0  0  0  0  0  0  0
    7.9638   -3.6278    1.6486 H   0  0  0  0  0  0  0  0  0  0  0  0
    9.3968   -5.2863    2.7705 H   0  0  0  0  0  0  0  0  0  0  0  0
   11.0047   -6.4505   -1.0042 H   0  0  0  0  0  0  0  0  0  0  0  0
    9.5689   -4.7946   -2.1265 H   0  0  0  0  0  0  0  0  0  0  0  0
    4.2093   -4.8342   -0.5475 H   0  0  0  0  0  0  0  0  0  0  0  0
    3.3682   -3.2721   -0.3960 H   0  0  0  0  0  0  0  0  0  0  0  0
    1.7025   -5.0544   -0.5160 H   0  0  0  0  0  0  0  0  0  0  0  0
    2.4408   -5.6867   -2.0102 H   0  0  0  0  0  0  0  0  0  0  0  0
    0.1626   -3.0027    1.2946 H   0  0  0  0  0  0  0  0  0  0  0  0
    0.5831   -2.1963    3.2662 H   0  0  0  0  0  0  0  0  0  0  0  0
    0.4557   -0.9731    4.4109 H   0  0  0  0  0  0  0  0  0  0  0  0
  1  2  1  0
  1 33  1  1
  1 34  1  0
  1 35  1  0
  2 29  1  0
  2  3  1  0
  3  4  2  0
  3 36  1  0
  4  5  1  0
  4 28  1  0
  5  6  2  0
  5  7  2  0
  5  8  1  6
  8 27  1  0
  8  9  1  0
  9 10  1  0
  9 37  1  6
  9 38  1  0
 10 11  1  0
 10 39  1  6
 10 40  1  0
 11 12  1  0
 11 26  1  0
 11 41  1  6
 12 13  2  0
 12 14  1  0
 14 15  1  0
 14 42  1  0
 15 16  1  0
 15 43  1  6
 15 44  1  0
 16 25  2  0
 16 17  1  0
 17 18  2  0
 17 45  1  0
 18 19  1  0
 18 46  1  0
 19 20  1  0
 19 24  2  0
 20 21  1  1
 20 22  1  0
 20 23  1  0
 24 25  1  0
 24 47  1  0
 25 48  1  0
 26 27  1  0
 26 49  1  1
 26 50  1  0
 27 51  1  1
 27 52  1  0
 28 29  2  0
 28 53  1  0
 29 30  1  0
 30 31  1  0
 30 32  2  0
 31 54  1  0
 31 55  1  0
M  END
$$$$
