ZINC000004694952
     RDKit          3D

 54 56  0  0  1  0  0  0  0  0999 V2000
    0.0021   -0.0041    0.0020 O   0  0  0  0  0  0  0  0  0  0  0  0
   -0.0144    1.2086    0.0087 C   0  0  0  0  0  0  0  0  0  0  0  0
    1.2803    1.9798    0.0005 C   0  0  1  0  0  0  0  0  0  0  0  0
    2.4066    1.0431   -0.0153 N   0  0  0  0  0  0  0  0  0  0  0  0
    2.8870    0.4965   -1.2868 C   0  0  1  0  0  0  0  0  0  0  0  0
    3.8806    1.4732   -1.9190 C   0  0  1  0  0  0  0  0  0  0  0  0
    4.3747    0.9110   -3.2269 C   0  0  0  0  0  0  0  0  0  0  0  0
    5.4974    0.1048   -3.2526 C   0  0  0  0  0  0  0  0  0  0  0  0
    5.9506   -0.4110   -4.4523 C   0  0  0  0  0  0  0  0  0  0  0  0
    5.2810   -0.1209   -5.6264 C   0  0  0  0  0  0  0  0  0  0  0  0
    4.1578    0.6845   -5.6006 C   0  0  0  0  0  0  0  0  0  0  0  0
    3.7020    1.1967   -4.4002 C   0  0  0  0  0  0  0  0  0  0  0  0
    3.1367    0.6021    1.4041 S   0  0  1  0  0  0  0  0  0  0  0  0
    4.4947    0.3274    1.0884 O   0  0  0  0  0  0  0  0  0  0  0  0
    2.7433    1.5638    2.3734 O   0  0  0  0  0  0  0  0  0  0  0  0
    2.4227   -0.9292    1.9041 C   0  0  0  0  0  0  0  0  0  0  0  0
    1.3004   -0.9377    2.7111 C   0  0  0  0  0  0  0  0  0  0  0  0
    0.7402   -2.1390    3.1034 C   0  0  0  0  0  0  0  0  0  0  0  0
    1.3020   -3.3318    2.6884 C   0  0  0  0  0  0  0  0  0  0  0  0
    2.4238   -3.3234    1.8806 C   0  0  0  0  0  0  0  0  0  0  0  0
    2.9815   -2.1220    1.4848 C   0  0  0  0  0  0  0  0  0  0  0  0
   -1.1906    1.8666    0.0178 N   0  0  0  0  0  0  0  0  0  0  0  0
   -2.4492    1.1169    0.0197 C   0  0  1  0  0  0  0  0  0  0  0  0
   -3.6255    2.0952    0.0306 C   0  0  2  0  0  0  0  0  0  0  0  0
   -3.5231    2.7871    0.8666 H   0  0  0  0  0  0  0  0  0  0  0  0
   -4.9530    1.3168    0.1546 C   0  0  1  0  0  0  0  0  0  0  0  0
   -5.8894    2.1083   -0.7986 C   0  0  1  0  0  0  0  0  0  0  0  0
   -4.8891    2.5440   -1.8988 C   0  0  1  0  0  0  0  0  0  0  0  0
   -3.6626    2.8243   -1.2018 O   0  0  0  0  0  0  0  0  0  0  0  0
    1.3211    2.6120   -0.8866 H   0  0  0  0  0  0  0  0  0  0  0  0
    1.3381    2.6024    0.8933 H   0  0  0  0  0  0  0  0  0  0  0  0
    3.3803   -0.4590   -1.1083 H   0  0  0  0  0  0  0  0  0  0  0  0
    2.0432    0.3494   -1.9610 H   0  0  0  0  0  0  0  0  0  0  0  0
    3.3872    2.4287   -2.0974 H   0  0  0  0  0  0  0  0  0  0  0  0
    4.7243    1.6203   -1.2448 H   0  0  0  0  0  0  0  0  0  0  0  0
    6.0205   -0.1218   -2.3353 H   0  0  0  0  0  0  0  0  0  0  0  0
    6.8281   -1.0402   -4.4725 H   0  0  0  0  0  0  0  0  0  0  0  0
    5.6355   -0.5233   -6.5638 H   0  0  0  0  0  0  0  0  0  0  0  0
    3.6348    0.9113   -6.5179 H   0  0  0  0  0  0  0  0  0  0  0  0
    2.8245    1.8260   -4.3801 H   0  0  0  0  0  0  0  0  0  0  0  0
    0.8614   -0.0057    3.0354 H   0  0  0  0  0  0  0  0  0  0  0  0
   -0.1362   -2.1456    3.7345 H   0  0  0  0  0  0  0  0  0  0  0  0
    0.8648   -4.2704    2.9954 H   0  0  0  0  0  0  0  0  0  0  0  0
    2.8630   -4.2554    1.5566 H   0  0  0  0  0  0  0  0  0  0  0  0
    3.8579   -2.1154    0.8537 H   0  0  0  0  0  0  0  0  0  0  0  0
   -1.2037    2.8365    0.0232 H   0  0  0  0  0  0  0  0  0  0  0  0
   -2.5027    0.4944   -0.8734 H   0  0  0  0  0  0  0  0  0  0  0  0
   -2.4943    0.4847    0.9065 H   0  0  0  0  0  0  0  0  0  0  0  0
   -4.8328    0.2883   -0.1856 H   0  0  0  0  0  0  0  0  0  0  0  0
   -5.3262    1.3469    1.1783 H   0  0  0  0  0  0  0  0  0  0  0  0
   -6.6680    1.4648   -1.2081 H   0  0  0  0  0  0  0  0  0  0  0  0
   -6.3216    2.9734   -0.2957 H   0  0  0  0  0  0  0  0  0  0  0  0
   -4.7413    1.7373   -2.6167 H   0  0  0  0  0  0  0  0  0  0  0  0
   -5.2493    3.4401   -2.4042 H   0  0  0  0  0  0  0  0  0  0  0  0
  1  2  2  0
  2  3  1  0
  2 22  1  0
  3  4  1  0
  3 30  1  6
  3 31  1  0
  4  5  1  0
 13  4  1  6
  5  6  1  0
  5 32  1  1
  5 33  1  0
  6  7  1  0
  6 34  1  6
  6 35  1  0
  7 12  2  0
  7  8  1  0
  8  9  2  0
  8 36  1  0
  9 10  1  0
  9 37  1  0
 10 11  2  0
 10 38  1  0
 11 12  1  0
 11 39  1  0
 12 40  1  0
 13 14  2  0
 13 15  2  0
 13 16  1  0
 16 21  2  0
 16 17  1  0
 17 18  2  0
 17 41  1  0
 18 19  1  0
 18 42  1  0
 19 20  2  0
 19 43  1  0
 20 21  1  0
 20 44  1  0
 21 45  1  0
 22 23  1  0
 22 46  1  0
 23 24  1  0
 23 47  1  6
 23 48  1  0
 24 25  1  1
 24 29  1  0
 24 26  1  0
 26 27  1  0
 26 49  1  6
 26 50  1  0
 27 28  1  0
 27 51  1  6
 27 52  1  0
 28 29  1  0
 28 53  1  6
 28 54  1  0
M  END
$$$$
