ZINC000408623704
     RDKit          3D

 47 48  0  0  0  0  0  0  0  0999 V2000
    5.1422   -2.0609    0.0778 C   0  0  1  0  0  0  0  0  0  0  0  0
    4.5667   -3.2541    0.8432 C   0  0  1  0  0  0  0  0  0  0  0  0
    3.8862   -2.7779    2.0500 N   0  0  0  0  0  0  0  0  0  0  0  0
    2.4927   -2.3317    1.9775 C   0  0  1  0  0  0  0  0  0  0  0  0
    1.5629   -3.5398    2.1073 C   0  0  1  0  0  0  0  0  0  0  0  0
    4.6923   -2.7440    3.4962 S   0  0  1  0  0  0  0  0  0  0  0  0
    3.6983   -2.7886    4.5107 O   0  0  0  0  0  0  0  0  0  0  0  0
    5.7411   -3.6972    3.3934 O   0  0  0  0  0  0  0  0  0  0  0  0
    5.4651   -1.1658    3.6258 C   0  0  0  0  0  0  0  0  0  0  0  0
    6.7448   -0.9818    3.1358 C   0  0  0  0  0  0  0  0  0  0  0  0
    7.3529    0.2546    3.2362 C   0  0  0  0  0  0  0  0  0  0  0  0
    6.6782    1.3121    3.8288 C   0  0  0  0  0  0  0  0  0  0  0  0
    7.2741    2.5294    3.9283 O   0  0  0  0  0  0  0  0  0  0  0  0
    6.5201    3.5719    4.5502 C   0  0  1  0  0  0  0  0  0  0  0  0
    7.3362    4.8386    4.5706 C   0  0  0  0  0  0  0  0  0  0  0  0
    8.4537    4.8478    4.0988 O   0  0  0  0  0  0  0  0  0  0  0  0
    6.8245    5.9613    5.1129 N   0  0  0  0  0  0  0  0  0  0  0  0
    7.6201    7.1096    5.2284 C   0  0  0  0  0  0  0  0  0  0  0  0
    8.3929    7.3102    6.3660 C   0  0  0  0  0  0  0  0  0  0  0  0
    8.3789    6.3982    7.3626 F   0  0  0  0  0  0  0  0  0  0  0  0
    9.1768    8.4447    6.4763 C   0  0  0  0  0  0  0  0  0  0  0  0
    9.1918    9.3786    5.4568 C   0  0  0  0  0  0  0  0  0  0  0  0
    8.4244    9.1826    4.3235 C   0  0  0  0  0  0  0  0  0  0  0  0
    7.6426    8.0476    4.2031 C   0  0  0  0  0  0  0  0  0  0  0  0
    6.8934    7.8567    3.0952 F   0  0  0  0  0  0  0  0  0  0  0  0
    5.3940    1.1249    4.3192 C   0  0  0  0  0  0  0  0  0  0  0  0
    4.7885   -0.1122    4.2121 C   0  0  0  0  0  0  0  0  0  0  0  0
    5.8541   -1.5319    0.7114 H   0  0  0  0  0  0  0  0  0  0  0  0
    5.6485   -2.4152   -0.8202 H   0  0  0  0  0  0  0  0  0  0  0  0
    4.3342   -1.3855   -0.2033 H   0  0  0  0  0  0  0  0  0  0  0  0
    3.8548   -3.7831    0.2095 H   0  0  0  0  0  0  0  0  0  0  0  0
    5.3747   -3.9295    1.1242 H   0  0  0  0  0  0  0  0  0  0  0  0
    2.2930   -1.6307    2.7879 H   0  0  0  0  0  0  0  0  0  0  0  0
    2.3180   -1.8399    1.0205 H   0  0  0  0  0  0  0  0  0  0  0  0
    1.7376   -4.0315    3.0643 H   0  0  0  0  0  0  0  0  0  0  0  0
    0.5261   -3.2078    2.0533 H   0  0  0  0  0  0  0  0  0  0  0  0
    1.7626   -4.2407    1.2968 H   0  0  0  0  0  0  0  0  0  0  0  0
    7.2696   -1.8053    2.6746 H   0  0  0  0  0  0  0  0  0  0  0  0
    8.3528    0.3977    2.8539 H   0  0  0  0  0  0  0  0  0  0  0  0
    5.6014    3.7406    3.9885 H   0  0  0  0  0  0  0  0  0  0  0  0
    6.2734    3.2822    5.5717 H   0  0  0  0  0  0  0  0  0  0  0  0
    5.9056    5.9748    5.4233 H   0  0  0  0  0  0  0  0  0  0  0  0
    9.7776    8.6013    7.3600 H   0  0  0  0  0  0  0  0  0  0  0  0
    9.8043   10.2637    5.5461 H   0  0  0  0  0  0  0  0  0  0  0  0
    8.4387    9.9144    3.5293 H   0  0  0  0  0  0  0  0  0  0  0  0
    4.8669    1.9465    4.7812 H   0  0  0  0  0  0  0  0  0  0  0  0
    3.7887   -0.2583    4.5934 H   0  0  0  0  0  0  0  0  0  0  0  0
  1  2  1  0
  1 28  1  1
  1 29  1  0
  1 30  1  0
  2  3  1  0
  2 31  1  6
  2 32  1  0
  3  4  1  0
  6  3  1  6
  4  5  1  0
  4 33  1  1
  4 34  1  0
  5 35  1  1
  5 36  1  0
  5 37  1  0
  6  7  2  0
  6  8  2  0
  6  9  1  0
  9 27  2  0
  9 10  1  0
 10 11  2  0
 10 38  1  0
 11 12  1  0
 11 39  1  0
 12 13  1  0
 12 26  2  0
 13 14  1  0
 14 15  1  0
 14 40  1  6
 14 41  1  0
 15 16  2  0
 15 17  1  0
 17 18  1  0
 17 42  1  0
 18 24  2  0
 18 19  1  0
 19 20  1  0
 19 21  2  0
 21 22  1  0
 21 43  1  0
 22 23  2  0
 22 44  1  0
 23 24  1  0
 23 45  1  0
 24 25  1  0
 26 27  1  0
 26 46  1  0
 27 47  1  0
M  END
$$$$
