ZINC000012850790
     RDKit          3D

 49 51  0  0  1  0  0  0  0  0999 V2000
   -0.0184    1.5028    0.0103 C   0  0  1  0  0  0  0  0  0  0  0  0
    0.0021   -0.0041    0.0020 C   0  0  0  0  0  0  0  0  0  0  0  0
    0.0084   -0.7781   -1.0446 N   0  0  0  0  0  0  0  0  0  0  0  0
    0.0260   -1.9466   -0.7340 O   0  0  0  0  0  0  0  0  0  0  0  0
    0.0337   -2.1026    0.5973 C   0  0  0  0  0  0  0  0  0  0  0  0
    0.0555   -3.4063    1.3528 C   0  0  1  0  0  0  0  0  0  0  0  0
    0.0244   -0.8570    1.1293 C   0  0  0  0  0  0  0  0  0  0  0  0
    0.0281   -0.4046    2.8322 S   0  0  1  0  0  0  0  0  0  0  0  0
   -0.5285    0.9011    2.9018 O   0  0  0  0  0  0  0  0  0  0  0  0
   -0.5024   -1.5145    3.5435 O   0  0  0  0  0  0  0  0  0  0  0  0
    1.6108   -0.2636    3.2985 N   0  0  0  0  0  0  0  0  0  0  0  0
    2.4464   -1.3498    3.8421 C   0  0  1  0  0  0  0  0  0  0  0  0
    3.9029   -0.9223    3.5328 C   0  0  1  0  0  0  0  0  0  0  0  0
    3.8293    0.6126    3.7472 C   0  0  1  0  0  0  0  0  0  0  0  0
    2.4173    0.9639    3.2331 C   0  0  2  0  0  0  0  0  0  0  0  0
    2.4754    1.3208    2.2048 H   0  0  0  0  0  0  0  0  0  0  0  0
    1.8020    2.0243    4.1094 C   0  0  0  0  0  0  0  0  0  0  0  0
    0.7802    1.7894    4.7190 O   0  0  0  0  0  0  0  0  0  0  0  0
    2.3871    3.2338    4.2155 N   0  0  0  0  0  0  0  0  0  0  0  0
    1.7888    4.2647    5.0674 C   0  0  1  0  0  0  0  0  0  0  0  0
    2.6309    5.5132    5.0117 C   0  0  0  0  0  0  0  0  0  0  0  0
    3.6654    5.6899    5.9114 C   0  0  0  0  0  0  0  0  0  0  0  0
    4.4378    6.8351    5.8604 C   0  0  0  0  0  0  0  0  0  0  0  0
    4.1760    7.8036    4.9093 C   0  0  0  0  0  0  0  0  0  0  0  0
    5.0178    9.0524    4.8540 C   0  0  1  0  0  0  0  0  0  0  0  0
    6.1074    8.8429    4.0019 F   0  0  0  0  0  0  0  0  0  0  0  0
    4.2455   10.1143    4.3712 F   0  0  0  0  0  0  0  0  0  0  0  0
    5.4819    9.3592    6.1376 F   0  0  0  0  0  0  0  0  0  0  0  0
    3.1424    7.6263    4.0088 C   0  0  0  0  0  0  0  0  0  0  0  0
    2.3724    6.4793    4.0574 C   0  0  0  0  0  0  0  0  0  0  0  0
    1.0042    1.8801    0.0026 H   0  0  0  0  0  0  0  0  0  0  0  0
   -0.5455    1.8639   -0.8728 H   0  0  0  0  0  0  0  0  0  0  0  0
   -0.5286    1.8543    0.9071 H   0  0  0  0  0  0  0  0  0  0  0  0
    0.0639   -4.2359    0.6459 H   0  0  0  0  0  0  0  0  0  0  0  0
    0.9490   -3.4505    1.9755 H   0  0  0  0  0  0  0  0  0  0  0  0
   -0.8308   -3.4755    1.9836 H   0  0  0  0  0  0  0  0  0  0  0  0
    2.2980   -1.4404    4.9181 H   0  0  0  0  0  0  0  0  0  0  0  0
    2.2140   -2.2919    3.3456 H   0  0  0  0  0  0  0  0  0  0  0  0
    4.6017   -1.3814    4.2321 H   0  0  0  0  0  0  0  0  0  0  0  0
    4.1698   -1.1606    2.5032 H   0  0  0  0  0  0  0  0  0  0  0  0
    3.9314    0.8597    4.8039 H   0  0  0  0  0  0  0  0  0  0  0  0
    4.5903    1.1216    3.1556 H   0  0  0  0  0  0  0  0  0  0  0  0
    3.2042    3.4218    3.7279 H   0  0  0  0  0  0  0  0  0  0  0  0
    0.7825    4.4891    4.7139 H   0  0  0  0  0  0  0  0  0  0  0  0
    1.7411    3.9042    6.0949 H   0  0  0  0  0  0  0  0  0  0  0  0
    3.8700    4.9333    6.6545 H   0  0  0  0  0  0  0  0  0  0  0  0
    5.2456    6.9735    6.5637 H   0  0  0  0  0  0  0  0  0  0  0  0
    2.9380    8.3828    3.2655 H   0  0  0  0  0  0  0  0  0  0  0  0
    1.5648    6.3408    3.3538 H   0  0  0  0  0  0  0  0  0  0  0  0
  1  2  1  0
  1 31  1  6
  1 32  1  0
  1 33  1  0
  2  7  1  0
  2  3  2  0
  3  4  1  0
  4  5  1  0
  5  6  1  0
  5  7  2  0
  6 34  1  6
  6 35  1  0
  6 36  1  0
  7  8  1  0
  8  9  2  0
  8 10  2  0
  8 11  1  1
 11 15  1  0
 11 12  1  0
 12 13  1  0
 12 37  1  1
 12 38  1  0
 13 14  1  0
 13 39  1  1
 13 40  1  0
 14 15  1  0
 14 41  1  1
 14 42  1  0
 15 16  1  6
 15 17  1  0
 17 18  2  0
 17 19  1  0
 19 20  1  0
 19 43  1  0
 20 21  1  0
 20 44  1  6
 20 45  1  0
 21 30  2  0
 21 22  1  0
 22 23  2  0
 22 46  1  0
 23 24  1  0
 23 47  1  0
 24 25  1  0
 24 29  2  0
 25 26  1  6
 25 27  1  0
 25 28  1  0
 29 30  1  0
 29 48  1  0
 30 49  1  0
M  END
$$$$
