ZINC000011717562
     RDKit          3D

 48 49  0  0  1  0  0  0  0  0999 V2000
    0.9319   -0.2456   -1.2015 C   0  0  1  0  0  0  0  0  0  0  0  0
    0.0213    0.0240   -0.0019 C   0  0  1  0  0  0  0  0  0  0  0  0
   -0.2478    1.0801    0.0199 H   0  0  0  0  0  0  0  0  0  0  0  0
   -1.2280   -0.8102   -0.1221 C   0  0  0  0  0  0  0  0  0  0  0  0
   -1.4204   -1.7284    0.6467 O   0  0  0  0  0  0  0  0  0  0  0  0
   -2.1315   -0.5360   -1.0839 N   0  0  0  0  0  0  0  0  0  0  0  0
   -3.3382   -1.2427   -1.1321 C   0  0  0  0  0  0  0  0  0  0  0  0
   -4.5027   -0.6043   -1.5386 C   0  0  0  0  0  0  0  0  0  0  0  0
   -5.6922   -1.3046   -1.5851 C   0  0  0  0  0  0  0  0  0  0  0  0
   -5.7246   -2.6399   -1.2270 C   0  0  0  0  0  0  0  0  0  0  0  0
   -7.0243   -3.4008   -1.2784 C   0  0  1  0  0  0  0  0  0  0  0  0
   -7.1774   -3.9774   -2.5439 F   0  0  0  0  0  0  0  0  0  0  0  0
   -7.0148   -4.4064   -0.3059 F   0  0  0  0  0  0  0  0  0  0  0  0
   -8.0874   -2.5250   -1.0333 F   0  0  0  0  0  0  0  0  0  0  0  0
   -4.5668   -3.2785   -0.8223 C   0  0  0  0  0  0  0  0  0  0  0  0
   -3.3730   -2.5853   -0.7791 C   0  0  0  0  0  0  0  0  0  0  0  0
    0.7272   -0.3272    1.2375 N   0  0  0  0  0  0  0  0  0  0  0  0
    1.1879   -1.7211    1.2038 C   0  0  1  0  0  0  0  0  0  0  0  0
    2.0410   -2.0078    2.4416 C   0  0  1  0  0  0  0  0  0  0  0  0
    1.2059   -1.7569    3.7003 C   0  0  1  0  0  0  0  0  0  0  0  0
    2.0346   -1.9736    4.8888 N   0  0  0  0  0  0  0  0  0  0  0  0
    1.3654   -2.6221    6.2578 S   0  0  1  0  0  0  0  0  0  0  0  0
    0.8838   -4.3027    5.7737 C   0  0  1  0  0  0  0  0  0  0  0  0
    2.4385   -2.6595    7.1885 O   0  0  0  0  0  0  0  0  0  0  0  0
    0.2150   -1.8233    6.4978 O   0  0  0  0  0  0  0  0  0  0  0  0
    0.6982   -0.3124    3.6869 C   0  0  1  0  0  0  0  0  0  0  0  0
   -0.1159   -0.0748    2.4130 C   0  0  1  0  0  0  0  0  0  0  0  0
    1.2009   -1.3016   -1.2233 H   0  0  0  0  0  0  0  0  0  0  0  0
    0.4081    0.0150   -2.1212 H   0  0  0  0  0  0  0  0  0  0  0  0
    1.8355    0.3578   -1.1146 H   0  0  0  0  0  0  0  0  0  0  0  0
   -1.9452    0.1512   -1.7426 H   0  0  0  0  0  0  0  0  0  0  0  0
   -4.4781    0.4387   -1.8177 H   0  0  0  0  0  0  0  0  0  0  0  0
   -6.5981   -0.8087   -1.9011 H   0  0  0  0  0  0  0  0  0  0  0  0
   -4.5953   -4.3215   -0.5432 H   0  0  0  0  0  0  0  0  0  0  0  0
   -2.4690   -3.0847   -0.4629 H   0  0  0  0  0  0  0  0  0  0  0  0
    0.3260   -2.3883    1.1943 H   0  0  0  0  0  0  0  0  0  0  0  0
    1.7839   -1.8851    0.3061 H   0  0  0  0  0  0  0  0  0  0  0  0
    2.3698   -3.0469    2.4242 H   0  0  0  0  0  0  0  0  0  0  0  0
    2.9104   -1.3504    2.4447 H   0  0  0  0  0  0  0  0  0  0  0  0
    0.3582   -2.4418    3.7175 H   0  0  0  0  0  0  0  0  0  0  0  0
    2.9752   -1.7371    4.8739 H   0  0  0  0  0  0  0  0  0  0  0  0
    1.7665   -4.8550    5.4513 H   0  0  0  0  0  0  0  0  0  0  0  0
    0.4288   -4.8096    6.6247 H   0  0  0  0  0  0  0  0  0  0  0  0
    0.1667   -4.2534    4.9543 H   0  0  0  0  0  0  0  0  0  0  0  0
    0.0677   -0.1402    4.5592 H   0  0  0  0  0  0  0  0  0  0  0  0
    1.5465    0.3717    3.7095 H   0  0  0  0  0  0  0  0  0  0  0  0
   -0.4669    0.9569    2.3934 H   0  0  0  0  0  0  0  0  0  0  0  0
   -0.9717   -0.7497    2.3977 H   0  0  0  0  0  0  0  0  0  0  0  0
  1  2  1  0
  1 28  1  6
  1 29  1  0
  1 30  1  0
  2  3  1  1
  2  4  1  0
  2 17  1  0
  4  5  2  0
  4  6  1  0
  6  7  1  0
  6 31  1  0
  7 16  2  0
  7  8  1  0
  8  9  2  0
  8 32  1  0
  9 10  1  0
  9 33  1  0
 10 11  1  0
 10 15  2  0
 11 12  1  6
 11 13  1  0
 11 14  1  0
 15 16  1  0
 15 34  1  0
 16 35  1  0
 17 27  1  0
 17 18  1  0
 18 19  1  0
 18 36  1  6
 18 37  1  0
 19 20  1  0
 19 38  1  6
 19 39  1  0
 20 21  1  0
 20 26  1  0
 20 40  1  1
 22 21  1  6
 21 41  1  0
 22 23  1  0
 22 24  2  0
 22 25  2  0
 23 42  1  6
 23 43  1  0
 23 44  1  0
 26 27  1  0
 26 45  1  1
 26 46  1  0
 27 47  1  6
 27 48  1  0
M  END
$$$$
