ZINC000096025321
     RDKit          3D

 36 37  0  0  1  0  0  0  0  0999 V2000
   -0.0225    1.8097    0.0120 C   0  0  1  0  0  0  0  0  0  0  0  0
    0.0021   -0.0041    0.0020 S   0  0  1  0  0  0  0  0  0  0  0  0
    0.8010   -0.4520    1.0884 O   0  0  0  0  0  0  0  0  0  0  0  0
   -1.3336   -0.4743   -0.1172 O   0  0  0  0  0  0  0  0  0  0  0  0
    0.8798   -0.3584   -1.5454 C   0  0  2  0  0  0  0  0  0  0  0  0
    1.9058    0.0071   -1.5028 H   0  0  0  0  0  0  0  0  0  0  0  0
    0.1261    0.2408   -2.7621 C   0  0  1  0  0  0  0  0  0  0  0  0
    0.5615   -0.6764   -3.9243 C   0  0  1  0  0  0  0  0  0  0  0  0
    1.0050   -1.9479   -3.3343 N   0  0  0  0  0  0  0  0  0  0  0  0
    1.5915   -3.2490   -4.1743 S   0  0  1  0  0  0  0  0  0  0  0  0
    1.3755   -4.3878   -3.3522 O   0  0  0  0  0  0  0  0  0  0  0  0
    1.0815   -3.1365   -5.4958 O   0  0  0  0  0  0  0  0  0  0  0  0
    3.3377   -3.0472   -4.2959 C   0  0  0  0  0  0  0  0  0  0  0  0
    3.8815   -2.3638   -5.3675 C   0  0  0  0  0  0  0  0  0  0  0  0
    5.2514   -2.2054   -5.4629 C   0  0  0  0  0  0  0  0  0  0  0  0
    6.0775   -2.7301   -4.4866 C   0  0  0  0  0  0  0  0  0  0  0  0
    7.5710   -2.5579   -4.5909 C   0  0  1  0  0  0  0  0  0  0  0  0
    7.9502   -1.3755   -3.9463 F   0  0  0  0  0  0  0  0  0  0  0  0
    8.2093   -3.6451   -3.9844 F   0  0  0  0  0  0  0  0  0  0  0  0
    7.9399   -2.4931   -5.9389 F   0  0  0  0  0  0  0  0  0  0  0  0
    5.5336   -3.4123   -3.4144 C   0  0  0  0  0  0  0  0  0  0  0  0
    4.1635   -3.5673   -3.3169 C   0  0  0  0  0  0  0  0  0  0  0  0
    0.8429   -1.8726   -1.8705 C   0  0  1  0  0  0  0  0  0  0  0  0
    1.0001    2.1870    0.0043 H   0  0  0  0  0  0  0  0  0  0  0  0
   -0.5497    2.1708   -0.8711 H   0  0  0  0  0  0  0  0  0  0  0  0
   -0.5327    2.1613    0.9088 H   0  0  0  0  0  0  0  0  0  0  0  0
   -0.9522    0.1877   -2.6121 H   0  0  0  0  0  0  0  0  0  0  0  0
    0.4412    1.2685   -2.9430 H   0  0  0  0  0  0  0  0  0  0  0  0
   -0.2808   -0.8520   -4.5935 H   0  0  0  0  0  0  0  0  0  0  0  0
    1.3832   -0.2155   -4.4725 H   0  0  0  0  0  0  0  0  0  0  0  0
    3.2360   -1.9539   -6.1302 H   0  0  0  0  0  0  0  0  0  0  0  0
    5.6763   -1.6721   -6.3004 H   0  0  0  0  0  0  0  0  0  0  0  0
    6.1790   -3.8219   -2.6514 H   0  0  0  0  0  0  0  0  0  0  0  0
    3.7385   -4.1003   -2.4792 H   0  0  0  0  0  0  0  0  0  0  0  0
    1.6626   -2.3890   -1.3710 H   0  0  0  0  0  0  0  0  0  0  0  0
   -0.1141   -2.3007   -1.5723 H   0  0  0  0  0  0  0  0  0  0  0  0
  1  2  1  0
  1 24  1  6
  1 25  1  0
  1 26  1  0
  2  3  2  0
  2  4  2  0
  2  5  1  6
  5  6  1  1
  5 23  1  0
  5  7  1  0
  7  8  1  0
  7 27  1  1
  7 28  1  0
  8  9  1  0
  8 29  1  6
  8 30  1  0
 10  9  1  1
  9 23  1  0
 10 11  2  0
 10 12  2  0
 10 13  1  0
 13 22  2  0
 13 14  1  0
 14 15  2  0
 14 31  1  0
 15 16  1  0
 15 32  1  0
 16 17  1  0
 16 21  2  0
 17 18  1  1
 17 19  1  0
 17 20  1  0
 21 22  1  0
 21 33  1  0
 22 34  1  0
 23 35  1  1
 23 36  1  0
M  END
$$$$
