ZINC000013027773
     RDKit          3D

 32 33  0  0  1  0  0  0  0  0999 V2000
    0.1960    0.0081    0.0332 O   0  0  0  0  0  0  0  0  0  0  0  0
    0.1073    1.2240    0.0277 C   0  0  0  0  0  0  0  0  0  0  0  0
    1.1153    1.9086   -0.0157 O   0  0  0  0  0  0  0  0  0  0  0  0
   -1.2484    1.8809    0.0681 C   0  0  2  0  0  0  0  0  0  0  0  0
   -1.8470    1.4462    0.8686 H   0  0  0  0  0  0  0  0  0  0  0  0
   -1.9645    1.6902   -1.2856 C   0  0  1  0  0  0  0  0  0  0  0  0
   -2.6823    3.0500   -1.4936 C   0  0  1  0  0  0  0  0  0  0  0  0
   -1.6591    4.0386   -0.8808 C   0  0  1  0  0  0  0  0  0  0  0  0
   -1.0971    3.3270    0.2856 N   0  0  0  0  0  0  0  0  0  0  0  0
   -0.4105    4.0409    1.6127 S   0  0  1  0  0  0  0  0  0  0  0  0
    0.3160    3.0218    2.2857 O   0  0  0  0  0  0  0  0  0  0  0  0
    0.1850    5.2476    1.1563 O   0  0  0  0  0  0  0  0  0  0  0  0
   -1.7232    4.5103    2.6902 C   0  0  0  0  0  0  0  0  0  0  0  0
   -1.9948    5.8479    2.9068 C   0  0  0  0  0  0  0  0  0  0  0  0
   -3.0248    6.2164    3.7523 C   0  0  0  0  0  0  0  0  0  0  0  0
   -3.3204    7.6752    3.9880 C   0  0  1  0  0  0  0  0  0  0  0  0
   -4.2499    8.1214    3.0423 F   0  0  0  0  0  0  0  0  0  0  0  0
   -3.8461    7.8427    5.2736 F   0  0  0  0  0  0  0  0  0  0  0  0
   -2.1397    8.4158    3.8668 F   0  0  0  0  0  0  0  0  0  0  0  0
   -3.7838    5.2474    4.3811 C   0  0  0  0  0  0  0  0  0  0  0  0
   -3.5131    3.9091    4.1652 C   0  0  0  0  0  0  0  0  0  0  0  0
   -2.4861    3.5397    3.3153 C   0  0  0  0  0  0  0  0  0  0  0  0
   -2.1455    1.8592    3.0438 Cl  0  0  0  0  0  0  0  0  0  0  0  0
   -1.2424    1.5096   -2.0818 H   0  0  0  0  0  0  0  0  0  0  0  0
   -2.6881    0.8771   -1.2280 H   0  0  0  0  0  0  0  0  0  0  0  0
   -2.8351    3.2530   -2.5536 H   0  0  0  0  0  0  0  0  0  0  0  0
   -3.6274    3.0798   -0.9514 H   0  0  0  0  0  0  0  0  0  0  0  0
   -0.8741    4.2673   -1.6016 H   0  0  0  0  0  0  0  0  0  0  0  0
   -2.1595    4.9526   -0.5609 H   0  0  0  0  0  0  0  0  0  0  0  0
   -1.4021    6.6055    2.4158 H   0  0  0  0  0  0  0  0  0  0  0  0
   -4.5883    5.5358    5.0414 H   0  0  0  0  0  0  0  0  0  0  0  0
   -4.1062    3.1520    4.6566 H   0  0  0  0  0  0  0  0  0  0  0  0
  1  2  2  0
  2  3  1  0
  2  4  1  0
  4  5  1  1
  4  9  1  0
  4  6  1  0
  6  7  1  0
  6 24  1  6
  6 25  1  0
  7  8  1  0
  7 26  1  6
  7 27  1  0
  8  9  1  0
  8 28  1  6
  8 29  1  0
 10  9  1  6
 10 11  2  0
 10 12  2  0
 10 13  1  0
 13 22  2  0
 13 14  1  0
 14 15  2  0
 14 30  1  0
 15 16  1  0
 15 20  1  0
 16 17  1  6
 16 18  1  0
 16 19  1  0
 20 21  2  0
 20 31  1  0
 21 22  1  0
 21 32  1  0
 22 23  1  0
M  END
$$$$
