ZINC000039986149
     RDKit          3D

 59 60  0  0  1  0  0  0  0  0999 V2000
   -0.0187    1.5258    0.0104 C   0  0  1  0  0  0  0  0  0  0  0  0
    0.0021   -0.0041    0.0020 C   0  0  1  0  0  0  0  0  0  0  0  0
   -1.3386   -0.4987    0.0122 O   0  0  0  0  0  0  0  0  0  0  0  0
   -1.4983   -1.8483    0.0064 C   0  0  0  0  0  0  0  0  0  0  0  0
   -0.3876   -2.6794   -0.0028 C   0  0  0  0  0  0  0  0  0  0  0  0
   -0.5526   -4.0509   -0.0082 C   0  0  0  0  0  0  0  0  0  0  0  0
   -1.8235   -4.5955   -0.0047 C   0  0  0  0  0  0  0  0  0  0  0  0
   -2.0307   -6.3453   -0.0121 S   0  0  1  0  0  0  0  0  0  0  0  0
   -3.3215   -6.5942   -0.5516 O   0  0  0  0  0  0  0  0  0  0  0  0
   -0.8394   -6.8880   -0.5648 O   0  0  0  0  0  0  0  0  0  0  0  0
   -2.0808   -6.8396    1.5676 N   0  0  0  0  0  0  0  0  0  0  0  0
   -3.3628   -6.9092    2.2731 C   0  0  1  0  0  0  0  0  0  0  0  0
   -3.9134   -8.3343    2.1911 C   0  0  1  0  0  0  0  0  0  0  0  0
   -0.8430   -7.2074    2.2596 C   0  0  1  0  0  0  0  0  0  0  0  0
   -0.3224   -6.0177    3.0242 C   0  0  0  0  0  0  0  0  0  0  0  0
   -0.9258   -4.9661    2.9940 O   0  0  0  0  0  0  0  0  0  0  0  0
    0.8138   -6.1223    3.7415 N   0  0  0  0  0  0  0  0  0  0  0  0
    1.3199   -4.9657    4.4848 C   0  0  2  0  0  0  0  0  0  0  0  0
    0.4811   -4.3857    4.8696 H   0  0  0  0  0  0  0  0  0  0  0  0
    2.1613   -4.0899    3.5542 C   0  0  1  0  0  0  0  0  0  0  0  0
    2.1845   -5.4477    5.6514 C   0  0  1  0  0  0  0  0  0  0  0  0
    1.3147   -6.2190    6.6461 C   0  0  1  0  0  0  0  0  0  0  0  0
    2.1663   -6.6938    7.7952 C   0  0  0  0  0  0  0  0  0  0  0  0
    2.7895   -7.9261    7.7307 C   0  0  0  0  0  0  0  0  0  0  0  0
    3.5706   -8.3616    8.7847 C   0  0  0  0  0  0  0  0  0  0  0  0
    3.7290   -7.5647    9.9031 C   0  0  0  0  0  0  0  0  0  0  0  0
    3.1065   -6.3321    9.9673 C   0  0  0  0  0  0  0  0  0  0  0  0
    2.3289   -5.8947    8.9114 C   0  0  0  0  0  0  0  0  0  0  0  0
   -2.9322   -3.7693    0.0050 C   0  0  0  0  0  0  0  0  0  0  0  0
   -2.7724   -2.3972    0.0157 C   0  0  0  0  0  0  0  0  0  0  0  0
    1.0039    1.9031    0.0027 H   0  0  0  0  0  0  0  0  0  0  0  0
   -0.5459    1.8868   -0.8726 H   0  0  0  0  0  0  0  0  0  0  0  0
   -0.5289    1.8773    0.9072 H   0  0  0  0  0  0  0  0  0  0  0  0
    0.5123   -0.3556   -0.8948 H   0  0  0  0  0  0  0  0  0  0  0  0
    0.5293   -0.3651    0.8851 H   0  0  0  0  0  0  0  0  0  0  0  0
    0.6053   -2.2545   -0.0062 H   0  0  0  0  0  0  0  0  0  0  0  0
    0.3118   -4.6984   -0.0154 H   0  0  0  0  0  0  0  0  0  0  0  0
   -3.2179   -6.6352    3.3181 H   0  0  0  0  0  0  0  0  0  0  0  0
   -4.0695   -6.2195    1.8114 H   0  0  0  0  0  0  0  0  0  0  0  0
   -4.0584   -8.6082    1.1460 H   0  0  0  0  0  0  0  0  0  0  0  0
   -3.2068   -9.0239    2.6528 H   0  0  0  0  0  0  0  0  0  0  0  0
   -4.8673   -8.3861    2.7159 H   0  0  0  0  0  0  0  0  0  0  0  0
   -1.0431   -8.0251    2.9521 H   0  0  0  0  0  0  0  0  0  0  0  0
   -0.0986   -7.5239    1.5291 H   0  0  0  0  0  0  0  0  0  0  0  0
    1.2965   -6.9633    3.7657 H   0  0  0  0  0  0  0  0  0  0  0  0
    3.0002   -4.6699    3.1694 H   0  0  0  0  0  0  0  0  0  0  0  0
    1.5454   -3.7465    2.7231 H   0  0  0  0  0  0  0  0  0  0  0  0
    2.5379   -3.2294    4.1072 H   0  0  0  0  0  0  0  0  0  0  0  0
    2.9718   -6.1006    5.2747 H   0  0  0  0  0  0  0  0  0  0  0  0
    2.6328   -4.5887    6.1506 H   0  0  0  0  0  0  0  0  0  0  0  0
    0.5274   -5.5661    7.0229 H   0  0  0  0  0  0  0  0  0  0  0  0
    0.8665   -7.0781    6.1469 H   0  0  0  0  0  0  0  0  0  0  0  0
    2.6658   -8.5487    6.8569 H   0  0  0  0  0  0  0  0  0  0  0  0
    4.0569   -9.3246    8.7346 H   0  0  0  0  0  0  0  0  0  0  0  0
    4.3387   -7.9053   10.7269 H   0  0  0  0  0  0  0  0  0  0  0  0
    3.2300   -5.7096   10.8412 H   0  0  0  0  0  0  0  0  0  0  0  0
    1.8426   -4.9317    8.9615 H   0  0  0  0  0  0  0  0  0  0  0  0
   -3.9238   -4.1971    0.0080 H   0  0  0  0  0  0  0  0  0  0  0  0
   -3.6387   -1.7522    0.0232 H   0  0  0  0  0  0  0  0  0  0  0  0
  1  2  1  0
  1 31  1  6
  1 32  1  0
  1 33  1  0
  2  3  1  0
  2 34  1  6
  2 35  1  0
  3  4  1  0
  4 30  2  0
  4  5  1  0
  5  6  2  0
  5 36  1  0
  6  7  1  0
  6 37  1  0
  7  8  1  0
  7 29  2  0
  8  9  2  0
  8 10  2  0
  8 11  1  1
 11 12  1  0
 11 14  1  0
 12 13  1  0
 12 38  1  1
 12 39  1  0
 13 40  1  6
 13 41  1  0
 13 42  1  0
 14 15  1  0
 14 43  1  1
 14 44  1  0
 15 16  2  0
 15 17  1  0
 17 18  1  0
 17 45  1  0
 18 19  1  1
 18 20  1  0
 18 21  1  0
 20 46  1  6
 20 47  1  0
 20 48  1  0
 21 22  1  0
 21 49  1  6
 21 50  1  0
 22 23  1  0
 22 51  1  1
 22 52  1  0
 23 28  2  0
 23 24  1  0
 24 25  2  0
 24 53  1  0
 25 26  1  0
 25 54  1  0
 26 27  2  0
 26 55  1  0
 27 28  1  0
 27 56  1  0
 28 57  1  0
 29 30  1  0
 29 58  1  0
 30 59  1  0
M  END
$$$$
