ZINC000002975707
     RDKit          3D

 50 51  0  0  0  0  0  0  0  0999 V2000
   -0.0173    1.4248    0.0099 C   0  0  1  0  0  0  0  0  0  0  0  0
    0.0021   -0.0041    0.0020 O   0  0  0  0  0  0  0  0  0  0  0  0
    0.6734   -0.5824    1.1231 C   0  0  1  0  0  0  0  0  0  0  0  0
    0.6327   -2.1077    1.0107 C   0  0  1  0  0  0  0  0  0  0  0  0
    1.3514   -2.7270    2.2110 C   0  0  1  0  0  0  0  0  0  0  0  0
    1.3125   -4.1875    2.1034 N   0  0  0  0  0  0  0  0  0  0  0  0
    1.8871   -4.9489    3.0555 C   0  0  0  0  0  0  0  0  0  0  0  0
    2.4365   -4.4251    4.0013 O   0  0  0  0  0  0  0  0  0  0  0  0
    1.8470   -6.4513    2.9447 C   0  0  1  0  0  0  0  0  0  0  0  0
    2.5352   -7.0443    4.0941 N   0  0  0  0  0  0  0  0  0  0  0  0
    1.8124   -7.2579    5.3503 C   0  0  1  0  0  0  0  0  0  0  0  0
    1.0819   -8.5747    5.2919 C   0  0  0  0  0  0  0  0  0  0  0  0
   -0.2097   -8.6272    4.8020 C   0  0  0  0  0  0  0  0  0  0  0  0
   -0.8799   -9.8348    4.7478 C   0  0  0  0  0  0  0  0  0  0  0  0
   -0.2581  -10.9909    5.1838 C   0  0  0  0  0  0  0  0  0  0  0  0
   -1.1743  -12.6435    5.1093 Br  0  0  0  0  0  0  0  0  0  0  0  0
    1.0344  -10.9379    5.6739 C   0  0  0  0  0  0  0  0  0  0  0  0
    1.7057   -9.7307    5.7228 C   0  0  0  0  0  0  0  0  0  0  0  0
    4.1302   -7.4730    3.9732 S   0  0  1  0  0  0  0  0  0  0  0  0
    4.3175   -8.5738    4.8521 O   0  0  0  0  0  0  0  0  0  0  0  0
    4.4269   -7.5278    2.5846 O   0  0  0  0  0  0  0  0  0  0  0  0
    5.0792   -6.1428    4.6326 C   0  0  0  0  0  0  0  0  0  0  0  0
    5.4990   -5.1172    3.8063 C   0  0  0  0  0  0  0  0  0  0  0  0
    6.2436   -4.0737    4.3236 C   0  0  0  0  0  0  0  0  0  0  0  0
    6.5679   -4.0555    5.6672 C   0  0  0  0  0  0  0  0  0  0  0  0
    6.1473   -5.0807    6.4937 C   0  0  0  0  0  0  0  0  0  0  0  0
    5.3991   -6.1220    5.9773 C   0  0  0  0  0  0  0  0  0  0  0  0
    1.0053    1.8021    0.0021 H   0  0  0  0  0  0  0  0  0  0  0  0
   -0.5445    1.7859   -0.8732 H   0  0  0  0  0  0  0  0  0  0  0  0
   -0.5275    1.7763    0.9067 H   0  0  0  0  0  0  0  0  0  0  0  0
    1.7103   -0.2468    1.1385 H   0  0  0  0  0  0  0  0  0  0  0  0
    0.1775   -0.2725    2.0430 H   0  0  0  0  0  0  0  0  0  0  0  0
   -0.4042   -2.4434    0.9953 H   0  0  0  0  0  0  0  0  0  0  0  0
    1.1285   -2.4176    0.0908 H   0  0  0  0  0  0  0  0  0  0  0  0
    2.3884   -2.3913    2.2264 H   0  0  0  0  0  0  0  0  0  0  0  0
    0.8556   -2.4171    3.1309 H   0  0  0  0  0  0  0  0  0  0  0  0
    0.8731   -4.6065    1.3469 H   0  0  0  0  0  0  0  0  0  0  0  0
    0.8101   -6.7870    2.9294 H   0  0  0  0  0  0  0  0  0  0  0  0
    2.3429   -6.7612    2.0248 H   0  0  0  0  0  0  0  0  0  0  0  0
    2.5204   -7.2716    6.1790 H   0  0  0  0  0  0  0  0  0  0  0  0
    1.0951   -6.4507    5.4986 H   0  0  0  0  0  0  0  0  0  0  0  0
   -0.6953   -7.7245    4.4620 H   0  0  0  0  0  0  0  0  0  0  0  0
   -1.8892   -9.8757    4.3655 H   0  0  0  0  0  0  0  0  0  0  0  0
    1.5204  -11.8403    6.0143 H   0  0  0  0  0  0  0  0  0  0  0  0
    2.7148   -9.6892    6.1054 H   0  0  0  0  0  0  0  0  0  0  0  0
    5.2457   -5.1314    2.7565 H   0  0  0  0  0  0  0  0  0  0  0  0
    6.5722   -3.2727    3.6779 H   0  0  0  0  0  0  0  0  0  0  0  0
    7.1502   -3.2406    6.0712 H   0  0  0  0  0  0  0  0  0  0  0  0
    6.4009   -5.0667    7.5434 H   0  0  0  0  0  0  0  0  0  0  0  0
    5.0705   -6.9230    6.6230 H   0  0  0  0  0  0  0  0  0  0  0  0
  1  2  1  0
  1 28  1  6
  1 29  1  0
  1 30  1  0
  2  3  1  0
  3  4  1  0
  3 31  1  1
  3 32  1  0
  4  5  1  0
  4 33  1  6
  4 34  1  0
  5  6  1  0
  5 35  1  1
  5 36  1  0
  6  7  1  0
  6 37  1  0
  7  8  2  0
  7  9  1  0
  9 10  1  0
  9 38  1  6
  9 39  1  0
 10 11  1  0
 19 10  1  6
 11 12  1  0
 11 40  1  1
 11 41  1  0
 12 18  2  0
 12 13  1  0
 13 14  2  0
 13 42  1  0
 14 15  1  0
 14 43  1  0
 15 16  1  0
 15 17  2  0
 17 18  1  0
 17 44  1  0
 18 45  1  0
 19 20  2  0
 19 21  2  0
 19 22  1  0
 22 27  2  0
 22 23  1  0
 23 24  2  0
 23 46  1  0
 24 25  1  0
 24 47  1  0
 25 26  2  0
 25 48  1  0
 26 27  1  0
 26 49  1  0
 27 50  1  0
M  END
$$$$
