ZINC000076066614
     RDKit          3D

 43 43  0  0  1  0  0  0  0  0999 V2000
    2.7173   -0.9771    2.2704 C   0  0  1  0  0  0  0  0  0  0  0  0
    2.2405   -2.4168    2.0685 C   0  0  1  0  0  0  0  0  0  0  0  0
    0.8424   -2.4185    1.7726 O   0  0  0  0  0  0  0  0  0  0  0  0
    0.2938   -3.7216    1.5650 C   0  0  2  0  0  0  0  0  0  0  0  0
    0.8492   -4.4483    2.1580 H   0  0  0  0  0  0  0  0  0  0  0  0
    0.3959   -4.0878    0.0830 C   0  0  1  0  0  0  0  0  0  0  0  0
   -1.1531   -3.7303    1.9861 C   0  0  0  0  0  0  0  0  0  0  0  0
   -1.7088   -4.6498    2.7006 N   0  0  0  0  0  0  0  0  0  0  0  0
   -2.9882   -4.5024    2.9802 C   0  0  0  0  0  0  0  0  0  0  0  0
   -3.7625   -5.4985    3.8044 C   0  0  1  0  0  0  0  0  0  0  0  0
   -4.2438   -6.5787    2.9397 N   0  0  0  0  0  0  0  0  0  0  0  0
   -3.4167   -7.7687    2.7250 C   0  0  1  0  0  0  0  0  0  0  0  0
   -5.4474   -6.4777    2.3417 C   0  0  0  0  0  0  0  0  0  0  0  0
   -6.1017   -5.4638    2.4632 O   0  0  0  0  0  0  0  0  0  0  0  0
   -5.9801   -7.6246    1.5221 C   0  0  1  0  0  0  0  0  0  0  0  0
   -7.4445   -7.3602    1.1663 C   0  0  1  0  0  0  0  0  0  0  0  0
   -5.1594   -7.7582    0.2378 C   0  0  1  0  0  0  0  0  0  0  0  0
   -5.8774   -8.9198    2.3300 C   0  0  1  0  0  0  0  0  0  0  0  0
   -3.5425   -3.3971    2.4734 C   0  0  0  0  0  0  0  0  0  0  0  0
   -2.2943   -2.5194    1.5924 S   0  0  0  0  0  0  0  0  0  0  0  0
    3.7837   -0.9759    2.4961 H   0  0  0  0  0  0  0  0  0  0  0  0
    2.5378   -0.4040    1.3608 H   0  0  0  0  0  0  0  0  0  0  0  0
    2.1702   -0.5259    3.0981 H   0  0  0  0  0  0  0  0  0  0  0  0
    2.7876   -2.8681    1.2408 H   0  0  0  0  0  0  0  0  0  0  0  0
    2.4200   -2.9900    2.9781 H   0  0  0  0  0  0  0  0  0  0  0  0
    1.4425   -4.0815   -0.2215 H   0  0  0  0  0  0  0  0  0  0  0  0
   -0.0226   -5.0818   -0.0752 H   0  0  0  0  0  0  0  0  0  0  0  0
   -0.1594   -3.3611   -0.5099 H   0  0  0  0  0  0  0  0  0  0  0  0
   -3.1146   -5.9128    4.5769 H   0  0  0  0  0  0  0  0  0  0  0  0
   -4.6125   -5.0010    4.2715 H   0  0  0  0  0  0  0  0  0  0  0  0
   -3.5838   -8.4784    3.5353 H   0  0  0  0  0  0  0  0  0  0  0  0
   -3.6856   -8.2316    1.7755 H   0  0  0  0  0  0  0  0  0  0  0  0
   -2.3654   -7.4817    2.7045 H   0  0  0  0  0  0  0  0  0  0  0  0
   -7.5177   -6.4375    0.5907 H   0  0  0  0  0  0  0  0  0  0  0  0
   -7.8299   -8.1898    0.5734 H   0  0  0  0  0  0  0  0  0  0  0  0
   -8.0293   -7.2651    2.0812 H   0  0  0  0  0  0  0  0  0  0  0  0
   -4.1044   -7.6016    0.4628 H   0  0  0  0  0  0  0  0  0  0  0  0
   -5.2976   -8.7555   -0.1797 H   0  0  0  0  0  0  0  0  0  0  0  0
   -5.4913   -7.0126   -0.4848 H   0  0  0  0  0  0  0  0  0  0  0  0
   -6.4622   -8.8247    3.2449 H   0  0  0  0  0  0  0  0  0  0  0  0
   -6.2628   -9.7494    1.7371 H   0  0  0  0  0  0  0  0  0  0  0  0
   -4.8342   -9.1082    2.5834 H   0  0  0  0  0  0  0  0  0  0  0  0
   -4.5727   -3.0934    2.5870 H   0  0  0  0  0  0  0  0  0  0  0  0
  1  2  1  0
  1 21  1  1
  1 22  1  0
  1 23  1  0
  2  3  1  0
  2 24  1  6
  2 25  1  0
  3  4  1  0
  4  5  1  1
  4  6  1  0
  4  7  1  0
  6 26  1  6
  6 27  1  0
  6 28  1  0
  7 20  1  0
  7  8  2  0
  8  9  1  0
  9 10  1  0
  9 19  2  0
 10 11  1  0
 10 29  1  1
 10 30  1  0
 11 12  1  0
 11 13  1  0
 12 31  1  1
 12 32  1  0
 12 33  1  0
 13 14  2  0
 15 13  1  1
 15 16  1  0
 15 17  1  0
 15 18  1  0
 16 34  1  6
 16 35  1  0
 16 36  1  0
 17 37  1  1
 17 38  1  0
 17 39  1  0
 18 40  1  1
 18 41  1  0
 18 42  1  0
 19 20  1  0
 19 43  1  0
M  END
$$$$
