ZINC000021740123
     RDKit          3D

 58 61  0  0  1  0  0  0  0  0999 V2000
   -0.0187    1.5258    0.0104 C   0  0  1  0  0  0  0  0  0  0  0  0
    0.0021   -0.0041    0.0020 C   0  0  2  0  0  0  0  0  0  0  0  0
    0.5122   -0.3561   -0.8946 H   0  0  0  0  0  0  0  0  0  0  0  0
   -1.4334   -0.5345    0.0145 C   0  0  1  0  0  0  0  0  0  0  0  0
   -1.4142   -2.0642   -0.0270 C   0  0  2  0  0  0  0  0  0  0  0  0
   -0.8906   -2.3972   -0.9231 H   0  0  0  0  0  0  0  0  0  0  0  0
   -2.8500   -2.5925   -0.0485 C   0  0  1  0  0  0  0  0  0  0  0  0
   -0.6916   -2.5957    1.2148 C   0  0  1  0  0  0  0  0  0  0  0  0
    0.6392   -1.9773    1.2884 N   0  0  0  0  0  0  0  0  0  0  0  0
    1.9987   -2.9138    1.4188 S   0  0  1  0  0  0  0  0  0  0  0  0
    2.9971   -2.0919    2.0077 O   0  0  0  0  0  0  0  0  0  0  0  0
    1.5812   -4.1514    1.9786 O   0  0  0  0  0  0  0  0  0  0  0  0
    2.5472   -3.2678   -0.2178 C   0  0  0  0  0  0  0  0  0  0  0  0
    2.0774   -4.3919   -0.8736 C   0  0  0  0  0  0  0  0  0  0  0  0
    2.5032   -4.6750   -2.1549 C   0  0  0  0  0  0  0  0  0  0  0  0
    3.4095   -3.8243   -2.7898 C   0  0  0  0  0  0  0  0  0  0  0  0
    3.8697   -4.1214   -4.1630 C   0  0  0  0  0  0  0  0  0  0  0  0
    3.4587   -5.1082   -4.7416 O   0  0  0  0  0  0  0  0  0  0  0  0
    4.7449   -3.2979   -4.7733 N   0  0  0  0  0  0  0  0  0  0  0  0
    5.2009   -3.5923   -6.1341 C   0  0  1  0  0  0  0  0  0  0  0  0
    6.1673   -2.5260   -6.5817 C   0  0  0  0  0  0  0  0  0  0  0  0
    5.8606   -1.4132   -7.1969 N   0  0  0  0  0  0  0  0  0  0  0  0
    6.9231   -0.7275   -7.4351 N   0  0  0  0  0  0  0  0  0  0  0  0
    7.9801   -1.3780   -6.9766 C   0  0  0  0  0  0  0  0  0  0  0  0
    9.3603   -1.0988   -6.9669 C   0  0  0  0  0  0  0  0  0  0  0  0
   10.2151   -1.9943   -6.4033 C   0  0  0  0  0  0  0  0  0  0  0  0
    9.7119   -3.1801   -5.8412 C   0  0  0  0  0  0  0  0  0  0  0  0
   10.6574   -4.1731   -5.2160 C   0  0  1  0  0  0  0  0  0  0  0  0
   11.1698   -5.0170   -6.2072 F   0  0  0  0  0  0  0  0  0  0  0  0
   11.7090   -3.4893   -4.5964 F   0  0  0  0  0  0  0  0  0  0  0  0
    9.9713   -4.9348   -4.2640 F   0  0  0  0  0  0  0  0  0  0  0  0
    8.3866   -3.4342   -5.8579 C   0  0  0  0  0  0  0  0  0  0  0  0
    7.5175   -2.5425   -6.4143 N   0  0  0  0  0  0  0  0  0  0  0  0
    3.8791   -2.6918   -2.1228 C   0  0  0  0  0  0  0  0  0  0  0  0
    3.4413   -2.4174   -0.8436 C   0  0  0  0  0  0  0  0  0  0  0  0
    0.7415   -0.5122    1.2437 C   0  0  1  0  0  0  0  0  0  0  0  0
    1.0039    1.9031    0.0027 H   0  0  0  0  0  0  0  0  0  0  0  0
   -0.5459    1.8868   -0.8726 H   0  0  0  0  0  0  0  0  0  0  0  0
   -0.5289    1.8773    0.9072 H   0  0  0  0  0  0  0  0  0  0  0  0
   -1.9355   -0.2021    0.9231 H   0  0  0  0  0  0  0  0  0  0  0  0
   -1.9686   -0.1542   -0.8556 H   0  0  0  0  0  0  0  0  0  0  0  0
   -3.3641   -2.2117   -0.9309 H   0  0  0  0  0  0  0  0  0  0  0  0
   -2.8358   -3.6820   -0.0780 H   0  0  0  0  0  0  0  0  0  0  0  0
   -3.3728   -2.2602    0.8483 H   0  0  0  0  0  0  0  0  0  0  0  0
   -1.2630   -2.3406    2.1072 H   0  0  0  0  0  0  0  0  0  0  0  0
   -0.5879   -3.6783    1.1418 H   0  0  0  0  0  0  0  0  0  0  0  0
    1.3762   -5.0493   -0.3812 H   0  0  0  0  0  0  0  0  0  0  0  0
    2.1363   -5.5532   -2.6654 H   0  0  0  0  0  0  0  0  0  0  0  0
    5.0728   -2.5104   -4.3116 H   0  0  0  0  0  0  0  0  0  0  0  0
    5.6977   -4.5623   -6.1490 H   0  0  0  0  0  0  0  0  0  0  0  0
    4.3444   -3.6123   -6.8080 H   0  0  0  0  0  0  0  0  0  0  0  0
    9.7358   -0.1844   -7.4021 H   0  0  0  0  0  0  0  0  0  0  0  0
   11.2764   -1.7950   -6.3882 H   0  0  0  0  0  0  0  0  0  0  0  0
    8.0108   -4.3486   -5.4230 H   0  0  0  0  0  0  0  0  0  0  0  0
    4.5807   -2.0297   -2.6083 H   0  0  0  0  0  0  0  0  0  0  0  0
    3.8036   -1.5412   -0.3264 H   0  0  0  0  0  0  0  0  0  0  0  0
    1.7904   -0.2207    1.1903 H   0  0  0  0  0  0  0  0  0  0  0  0
    0.2870   -0.0867    2.1384 H   0  0  0  0  0  0  0  0  0  0  0  0
  1  2  1  0
  1 37  1  6
  1 38  1  0
  1 39  1  0
  2  3  1  6
  2 36  1  0
  2  4  1  0
  4  5  1  0
  4 40  1  1
  4 41  1  0
  5  6  1  6
  5  7  1  0
  5  8  1  0
  7 42  1  6
  7 43  1  0
  7 44  1  0
  8  9  1  0
  8 45  1  1
  8 46  1  0
 10  9  1  6
  9 36  1  0
 10 11  2  0
 10 12  2  0
 10 13  1  0
 13 35  2  0
 13 14  1  0
 14 15  2  0
 14 47  1  0
 15 16  1  0
 15 48  1  0
 16 17  1  0
 16 34  2  0
 17 18  2  0
 17 19  1  0
 19 20  1  0
 19 49  1  0
 20 21  1  0
 20 50  1  1
 20 51  1  0
 21 33  1  0
 21 22  2  0
 22 23  1  0
 23 24  2  0
 24 33  1  0
 24 25  1  0
 25 26  2  0
 25 52  1  0
 26 27  1  0
 26 53  1  0
 27 28  1  0
 27 32  2  0
 28 29  1  6
 28 30  1  0
 28 31  1  0
 32 33  1  0
 32 54  1  0
 34 35  1  0
 34 55  1  0
 35 56  1  0
 36 57  1  6
 36 58  1  0
M  END
$$$$
