ZINC000012766454
     RDKit          3D

 58 59  0  0  0  0  0  0  0  0999 V2000
   -0.1010   -0.2975   -0.7294 C   0  0  1  0  0  0  0  0  0  0  0  0
   -0.5853   -1.6577   -0.2231 C   0  0  1  0  0  0  0  0  0  0  0  0
    0.1848   -2.0356    1.0159 C   0  0  0  0  0  0  0  0  0  0  0  0
    1.3638   -2.7496    0.9044 C   0  0  0  0  0  0  0  0  0  0  0  0
    2.0720   -3.0976    2.0378 C   0  0  0  0  0  0  0  0  0  0  0  0
    1.5987   -2.7297    3.2909 C   0  0  0  0  0  0  0  0  0  0  0  0
    2.3126   -3.0796    4.4392 N   0  0  0  0  0  0  0  0  0  0  0  0
    1.8120   -2.6907    5.7600 C   0  0  1  0  0  0  0  0  0  0  0  0
    2.7593   -3.1862    6.8222 C   0  0  0  0  0  0  0  0  0  0  0  0
    3.7547   -3.8034    6.5069 O   0  0  0  0  0  0  0  0  0  0  0  0
    2.5004   -2.9434    8.1224 N   0  0  0  0  0  0  0  0  0  0  0  0
    3.3298   -3.4830    9.1145 C   0  0  0  0  0  0  0  0  0  0  0  0
    4.6907   -3.6188    8.8849 C   0  0  0  0  0  0  0  0  0  0  0  0
    5.5070   -4.1515    9.8652 C   0  0  0  0  0  0  0  0  0  0  0  0
    7.2358   -4.3232    9.5716 S   0  0  1  0  0  0  0  0  0  0  0  0
    7.6915   -5.3467   10.4457 O   0  0  0  0  0  0  0  0  0  0  0  0
    7.4001   -4.3756    8.1611 O   0  0  0  0  0  0  0  0  0  0  0  0
    7.9601   -2.9216   10.0750 N   0  0  0  0  0  0  0  0  0  0  0  0
    8.4284   -2.7946   11.4573 C   0  0  1  0  0  0  0  0  0  0  0  0
    9.9131   -3.1573   11.5281 C   0  0  1  0  0  0  0  0  0  0  0  0
    8.1325   -1.8088    9.1379 C   0  0  1  0  0  0  0  0  0  0  0  0
    6.9661   -0.8301    9.2883 C   0  0  1  0  0  0  0  0  0  0  0  0
    4.9703   -4.5494   11.0754 C   0  0  0  0  0  0  0  0  0  0  0  0
    3.6141   -4.4175   11.3114 C   0  0  0  0  0  0  0  0  0  0  0  0
    2.7903   -3.8794   10.3365 C   0  0  0  0  0  0  0  0  0  0  0  0
    1.4567   -3.7487   10.5672 O   0  0  0  0  0  0  0  0  0  0  0  0
    0.9721   -4.1871   11.8381 C   0  0  1  0  0  0  0  0  0  0  0  0
    0.4139   -2.0125    3.3993 C   0  0  0  0  0  0  0  0  0  0  0  0
   -0.2863   -1.6629    2.2615 C   0  0  0  0  0  0  0  0  0  0  0  0
    0.9615   -0.3550   -0.9655 H   0  0  0  0  0  0  0  0  0  0  0  0
   -0.6580   -0.0241   -1.6256 H   0  0  0  0  0  0  0  0  0  0  0  0
   -0.2616    0.4556    0.0420 H   0  0  0  0  0  0  0  0  0  0  0  0
   -1.6479   -1.6002    0.0129 H   0  0  0  0  0  0  0  0  0  0  0  0
   -0.4247   -2.4107   -0.9946 H   0  0  0  0  0  0  0  0  0  0  0  0
    1.7310   -3.0356   -0.0701 H   0  0  0  0  0  0  0  0  0  0  0  0
    2.9926   -3.6555    1.9500 H   0  0  0  0  0  0  0  0  0  0  0  0
    3.1400   -3.5801    4.3623 H   0  0  0  0  0  0  0  0  0  0  0  0
    1.7395   -1.6046    5.8157 H   0  0  0  0  0  0  0  0  0  0  0  0
    0.8268   -3.1292    5.9186 H   0  0  0  0  0  0  0  0  0  0  0  0
    1.7399   -2.3951    8.3713 H   0  0  0  0  0  0  0  0  0  0  0  0
    5.1127   -3.3088    7.9403 H   0  0  0  0  0  0  0  0  0  0  0  0
    8.2887   -1.7678   11.7953 H   0  0  0  0  0  0  0  0  0  0  0  0
    7.8588   -3.4685   12.0972 H   0  0  0  0  0  0  0  0  0  0  0  0
   10.0528   -4.1841   11.1901 H   0  0  0  0  0  0  0  0  0  0  0  0
   10.4827   -2.4834   10.8881 H   0  0  0  0  0  0  0  0  0  0  0  0
   10.2616   -3.0628   12.5566 H   0  0  0  0  0  0  0  0  0  0  0  0
    9.0688   -1.2940    9.3535 H   0  0  0  0  0  0  0  0  0  0  0  0
    8.1554   -2.1927    8.1181 H   0  0  0  0  0  0  0  0  0  0  0  0
    7.0944   -0.0021    8.5911 H   0  0  0  0  0  0  0  0  0  0  0  0
    6.0298   -1.3449    9.0727 H   0  0  0  0  0  0  0  0  0  0  0  0
    6.9431   -0.4461   10.3082 H   0  0  0  0  0  0  0  0  0  0  0  0
    5.6118   -4.9647   11.8385 H   0  0  0  0  0  0  0  0  0  0  0  0
    3.1979   -4.7297   12.2578 H   0  0  0  0  0  0  0  0  0  0  0  0
    1.1884   -5.2481   11.9631 H   0  0  0  0  0  0  0  0  0  0  0  0
    1.4631   -3.6205   12.6293 H   0  0  0  0  0  0  0  0  0  0  0  0
   -0.1048   -4.0271   11.8912 H   0  0  0  0  0  0  0  0  0  0  0  0
    0.0430   -1.7252    4.3721 H   0  0  0  0  0  0  0  0  0  0  0  0
   -1.2075   -1.1053    2.3451 H   0  0  0  0  0  0  0  0  0  0  0  0
  1  2  1  0
  1 30  1  6
  1 31  1  0
  1 32  1  0
  2  3  1  0
  2 33  1  1
  2 34  1  0
  3 29  2  0
  3  4  1  0
  4  5  2  0
  4 35  1  0
  5  6  1  0
  5 36  1  0
  6  7  1  0
  6 28  2  0
  7  8  1  0
  7 37  1  0
  8  9  1  0
  8 38  1  6
  8 39  1  0
  9 10  2  0
  9 11  1  0
 11 12  1  0
 11 40  1  0
 12 25  2  0
 12 13  1  0
 13 14  2  0
 13 41  1  0
 14 15  1  0
 14 23  1  0
 15 16  2  0
 15 17  2  0
 15 18  1  1
 18 19  1  0
 18 21  1  0
 19 20  1  0
 19 42  1  1
 19 43  1  0
 20 44  1  6
 20 45  1  0
 20 46  1  0
 21 22  1  0
 21 47  1  1
 21 48  1  0
 22 49  1  6
 22 50  1  0
 22 51  1  0
 23 24  2  0
 23 52  1  0
 24 25  1  0
 24 53  1  0
 25 26  1  0
 26 27  1  0
 27 54  1  1
 27 55  1  0
 27 56  1  0
 28 29  1  0
 28 57  1  0
 29 58  1  0
M  END
$$$$
