ZINC000102470252
     RDKit          3D

 61 63  0  0  1  0  0  0  0  0999 V2000
    0.3504    1.4947   -0.0026 C   0  0  1  0  0  0  0  0  0  0  0  0
    0.0366   -0.0026    0.0202 C   0  0  1  0  0  0  0  0  0  0  0  0
    0.3879   -0.4333    0.9578 H   0  0  0  0  0  0  0  0  0  0  0  0
   -1.4519   -0.2058   -0.0994 C   0  0  0  0  0  0  0  0  0  0  0  0
   -1.9490   -0.4235   -1.1840 O   0  0  0  0  0  0  0  0  0  0  0  0
   -2.2306   -0.1456    0.9990 N   0  0  0  0  0  0  0  0  0  0  0  0
   -1.6340    0.0200    2.3314 C   0  0  1  0  0  0  0  0  0  0  0  0
   -2.2883    1.2228    3.0185 C   0  0  2  0  0  0  0  0  0  0  0  0
   -2.0378    2.1333    2.4743 H   0  0  0  0  0  0  0  0  0  0  0  0
   -1.7766    1.3301    4.4564 C   0  0  1  0  0  0  0  0  0  0  0  0
   -3.8071    1.0353    3.0288 C   0  0  1  0  0  0  0  0  0  0  0  0
   -4.3234    0.9611    1.5901 C   0  0  2  0  0  0  0  0  0  0  0  0
   -4.0538    1.8742    1.0593 H   0  0  0  0  0  0  0  0  0  0  0  0
   -5.8457    0.8075    1.6011 C   0  0  1  0  0  0  0  0  0  0  0  0
   -3.6926   -0.2384    0.8862 C   0  0  1  0  0  0  0  0  0  0  0  0
    0.7127   -0.6618   -1.1052 N   0  0  0  0  0  0  0  0  0  0  0  0
    0.3776   -2.0911   -1.1565 C   0  0  1  0  0  0  0  0  0  0  0  0
    0.9519   -2.7012   -2.4395 C   0  0  1  0  0  0  0  0  0  0  0  0
    2.3897   -2.3970   -2.4987 N   0  0  0  0  0  0  0  0  0  0  0  0
    3.5018   -3.5952   -2.7629 S   0  0  1  0  0  0  0  0  0  0  0  0
    4.7322   -3.1254   -2.2295 O   0  0  0  0  0  0  0  0  0  0  0  0
    2.8891   -4.8093   -2.3509 O   0  0  0  0  0  0  0  0  0  0  0  0
    3.7303   -3.7196   -4.5056 C   0  0  0  0  0  0  0  0  0  0  0  0
    2.9334   -4.5707   -5.2482 C   0  0  0  0  0  0  0  0  0  0  0  0
    3.1127   -4.6684   -6.6154 C   0  0  0  0  0  0  0  0  0  0  0  0
    4.0885   -3.9145   -7.2401 C   0  0  0  0  0  0  0  0  0  0  0  0
    4.2843   -4.0213   -8.7305 C   0  0  1  0  0  0  0  0  0  0  0  0
    3.4746   -3.0804   -9.3758 F   0  0  0  0  0  0  0  0  0  0  0  0
    5.6254   -3.7752   -9.0435 F   0  0  0  0  0  0  0  0  0  0  0  0
    3.9345   -5.3073   -9.1558 F   0  0  0  0  0  0  0  0  0  0  0  0
    4.8845   -3.0623   -6.4977 C   0  0  0  0  0  0  0  0  0  0  0  0
    4.7027   -2.9619   -5.1311 C   0  0  0  0  0  0  0  0  0  0  0  0
    2.8134   -1.0003   -2.3174 C   0  0  1  0  0  0  0  0  0  0  0  0
    2.1659   -0.4571   -1.0391 C   0  0  1  0  0  0  0  0  0  0  0  0
    1.4148    1.6456    0.1771 H   0  0  0  0  0  0  0  0  0  0  0  0
    0.0842    1.9070   -0.9758 H   0  0  0  0  0  0  0  0  0  0  0  0
   -0.2243    1.9982    0.7748 H   0  0  0  0  0  0  0  0  0  0  0  0
   -1.8076   -0.8783    2.9238 H   0  0  0  0  0  0  0  0  0  0  0  0
   -0.5624    0.1938    2.2330 H   0  0  0  0  0  0  0  0  0  0  0  0
   -0.6945    1.4610    4.4482 H   0  0  0  0  0  0  0  0  0  0  0  0
   -2.2424    2.1860    4.9449 H   0  0  0  0  0  0  0  0  0  0  0  0
   -2.0283    0.4198    5.0006 H   0  0  0  0  0  0  0  0  0  0  0  0
   -4.0555    0.1117    3.5518 H   0  0  0  0  0  0  0  0  0  0  0  0
   -4.2736    1.8780    3.5391 H   0  0  0  0  0  0  0  0  0  0  0  0
   -6.2937    1.6645    2.1039 H   0  0  0  0  0  0  0  0  0  0  0  0
   -6.2129    0.7547    0.5762 H   0  0  0  0  0  0  0  0  0  0  0  0
   -6.1148   -0.1063    2.1309 H   0  0  0  0  0  0  0  0  0  0  0  0
   -3.9800   -0.2378   -0.1652 H   0  0  0  0  0  0  0  0  0  0  0  0
   -4.0320   -1.1598    1.3594 H   0  0  0  0  0  0  0  0  0  0  0  0
    0.8053   -2.5963   -0.2905 H   0  0  0  0  0  0  0  0  0  0  0  0
   -0.7057   -2.2112   -1.1499 H   0  0  0  0  0  0  0  0  0  0  0  0
    0.8064   -3.7814   -2.4284 H   0  0  0  0  0  0  0  0  0  0  0  0
    0.4505   -2.2703   -3.3062 H   0  0  0  0  0  0  0  0  0  0  0  0
    2.1710   -5.1597   -4.7601 H   0  0  0  0  0  0  0  0  0  0  0  0
    2.4905   -5.3339   -7.1954 H   0  0  0  0  0  0  0  0  0  0  0  0
    5.6467   -2.4731   -6.9859 H   0  0  0  0  0  0  0  0  0  0  0  0
    5.3246   -2.2961   -4.5511 H   0  0  0  0  0  0  0  0  0  0  0  0
    3.8986   -0.9559   -2.2254 H   0  0  0  0  0  0  0  0  0  0  0  0
    2.4910   -0.4059   -3.1723 H   0  0  0  0  0  0  0  0  0  0  0  0
    2.3794    0.6078   -0.9474 H   0  0  0  0  0  0  0  0  0  0  0  0
    2.5686   -0.9851   -0.1747 H   0  0  0  0  0  0  0  0  0  0  0  0
  1  2  1  0
  1 35  1  1
  1 36  1  0
  1 37  1  0
  2  3  1  1
  2  4  1  0
  2 16  1  0
  4  5  2  0
  4  6  1  0
  6 15  1  0
  6  7  1  0
  7  8  1  0
  7 38  1  1
  7 39  1  0
  8  9  1  6
  8 10  1  0
  8 11  1  0
 10 40  1  6
 10 41  1  0
 10 42  1  0
 11 12  1  0
 11 43  1  1
 11 44  1  0
 12 13  1  6
 12 14  1  0
 12 15  1  0
 14 45  1  1
 14 46  1  0
 14 47  1  0
 15 48  1  6
 15 49  1  0
 16 34  1  0
 16 17  1  0
 17 18  1  0
 17 50  1  1
 17 51  1  0
 18 19  1  0
 18 52  1  1
 18 53  1  0
 20 19  1  6
 19 33  1  0
 20 21  2  0
 20 22  2  0
 20 23  1  0
 23 32  2  0
 23 24  1  0
 24 25  2  0
 24 54  1  0
 25 26  1  0
 25 55  1  0
 26 27  1  0
 26 31  2  0
 27 28  1  6
 27 29  1  0
 27 30  1  0
 31 32  1  0
 31 56  1  0
 32 57  1  0
 33 34  1  0
 33 58  1  1
 33 59  1  0
 34 60  1  1
 34 61  1  0
M  END
$$$$
