ZINC000085467233
     RDKit          3D

 42 43  0  0  1  0  0  0  0  0999 V2000
   -0.0187    1.5258    0.0104 C   0  0  1  0  0  0  0  0  0  0  0  0
    0.0021   -0.0041    0.0020 C   0  0  1  0  0  0  0  0  0  0  0  0
   -1.0205   -0.3814    0.0098 H   0  0  0  0  0  0  0  0  0  0  0  0
    0.6709   -0.4649   -1.1737 O   0  0  0  0  0  0  0  0  0  0  0  0
    0.7421   -0.5109    1.2415 C   0  0  1  0  0  0  0  0  0  0  0  0
    0.7620   -1.9797    1.2335 N   0  0  0  0  0  0  0  0  0  0  0  0
   -0.5628   -2.5224    0.9044 C   0  0  1  0  0  0  0  0  0  0  0  0
   -0.4597   -4.0411    0.7283 C   0  0  1  0  0  0  0  0  0  0  0  0
    0.1636   -4.6099    1.9329 N   0  0  0  0  0  0  0  0  0  0  0  0
   -0.5391   -5.8759    2.7365 S   0  0  1  0  0  0  0  0  0  0  0  0
   -0.0532   -5.8235    4.0709 O   0  0  0  0  0  0  0  0  0  0  0  0
   -1.9218   -5.8400    2.4109 O   0  0  0  0  0  0  0  0  0  0  0  0
    0.0995   -7.3595    2.0325 C   0  0  0  0  0  0  0  0  0  0  0  0
   -0.5418   -7.9463    0.9576 C   0  0  0  0  0  0  0  0  0  0  0  0
   -0.0407   -9.1103    0.4052 C   0  0  0  0  0  0  0  0  0  0  0  0
    1.1018   -9.6872    0.9274 C   0  0  0  0  0  0  0  0  0  0  0  0
    1.6477  -10.9563    0.3255 C   0  0  1  0  0  0  0  0  0  0  0  0
    2.5550  -10.6379   -0.6906 F   0  0  0  0  0  0  0  0  0  0  0  0
    2.2987  -11.6997    1.3159 F   0  0  0  0  0  0  0  0  0  0  0  0
    0.5962  -11.7096   -0.2074 F   0  0  0  0  0  0  0  0  0  0  0  0
    1.7439   -9.0996    2.0014 C   0  0  0  0  0  0  0  0  0  0  0  0
    1.2450   -7.9336    2.5513 C   0  0  0  0  0  0  0  0  0  0  0  0
    1.4279   -4.0248    2.4047 C   0  0  1  0  0  0  0  0  0  0  0  0
    1.2504   -2.5067    2.5148 C   0  0  1  0  0  0  0  0  0  0  0  0
    1.0039    1.9031    0.0027 H   0  0  0  0  0  0  0  0  0  0  0  0
   -0.5459    1.8868   -0.8726 H   0  0  0  0  0  0  0  0  0  0  0  0
   -0.5289    1.8773    0.9072 H   0  0  0  0  0  0  0  0  0  0  0  0
    0.2557   -0.1806   -1.9994 H   0  0  0  0  0  0  0  0  0  0  0  0
    1.7647   -0.1336    1.2338 H   0  0  0  0  0  0  0  0  0  0  0  0
    0.2319   -0.1594    2.1383 H   0  0  0  0  0  0  0  0  0  0  0  0
   -1.2593   -2.2963    1.7118 H   0  0  0  0  0  0  0  0  0  0  0  0
   -0.9205   -2.0723   -0.0217 H   0  0  0  0  0  0  0  0  0  0  0  0
   -1.4562   -4.4631    0.5976 H   0  0  0  0  0  0  0  0  0  0  0  0
    0.1541   -4.2678   -0.1434 H   0  0  0  0  0  0  0  0  0  0  0  0
   -1.4344   -7.4956    0.5496 H   0  0  0  0  0  0  0  0  0  0  0  0
   -0.5422   -9.5691   -0.4341 H   0  0  0  0  0  0  0  0  0  0  0  0
    2.6367   -9.5501    2.4091 H   0  0  0  0  0  0  0  0  0  0  0  0
    1.7466   -7.4745    3.3904 H   0  0  0  0  0  0  0  0  0  0  0  0
    1.6793   -4.4359    3.3823 H   0  0  0  0  0  0  0  0  0  0  0  0
    2.2232   -4.2499    1.6941 H   0  0  0  0  0  0  0  0  0  0  0  0
    2.2078   -2.0452    2.7566 H   0  0  0  0  0  0  0  0  0  0  0  0
    0.5287   -2.2808    3.2998 H   0  0  0  0  0  0  0  0  0  0  0  0
  1  2  1  0
  1 25  1  6
  1 26  1  0
  1 27  1  0
  2  3  1  1
  2  4  1  0
  2  5  1  0
  4 28  1  0
  5  6  1  0
  5 29  1  6
  5 30  1  0
  6 24  1  0
  6  7  1  0
  7  8  1  0
  7 31  1  1
  7 32  1  0
  8  9  1  0
  8 33  1  6
  8 34  1  0
 10  9  1  6
  9 23  1  0
 10 11  2  0
 10 12  2  0
 10 13  1  0
 13 22  2  0
 13 14  1  0
 14 15  2  0
 14 35  1  0
 15 16  1  0
 15 36  1  0
 16 17  1  0
 16 21  2  0
 17 18  1  6
 17 19  1  0
 17 20  1  0
 21 22  1  0
 21 37  1  0
 22 38  1  0
 23 24  1  0
 23 39  1  1
 23 40  1  0
 24 41  1  1
 24 42  1  0
M  END
$$$$
