ZINC000408617619
     RDKit          3D

 53 54  0  0  1  0  0  0  0  0999 V2000
   -0.0173    1.4248    0.0099 C   0  0  1  0  0  0  0  0  0  0  0  0
    0.0021   -0.0041    0.0020 O   0  0  0  0  0  0  0  0  0  0  0  0
    0.6734   -0.5824    1.1231 C   0  0  1  0  0  0  0  0  0  0  0  0
    0.6327   -2.1077    1.0107 C   0  0  2  0  0  0  0  0  0  0  0  0
    1.2199   -2.5473    1.8170 H   0  0  0  0  0  0  0  0  0  0  0  0
    1.2166   -2.5355   -0.3372 C   0  0  1  0  0  0  0  0  0  0  0  0
   -0.7546   -2.5679    1.1100 N   0  0  0  0  0  0  0  0  0  0  0  0
   -1.0210   -3.8180    1.5375 C   0  0  0  0  0  0  0  0  0  0  0  0
   -0.1122   -4.5620    1.8399 O   0  0  0  0  0  0  0  0  0  0  0  0
   -2.4481   -4.2913    1.6397 C   0  0  1  0  0  0  0  0  0  0  0  0
   -2.4706   -5.6735    2.1246 N   0  0  0  0  0  0  0  0  0  0  0  0
   -2.4250   -5.9460    3.5633 C   0  0  1  0  0  0  0  0  0  0  0  0
   -3.8187   -5.8762    4.1322 C   0  0  0  0  0  0  0  0  0  0  0  0
   -4.3132   -4.6748    4.6045 C   0  0  0  0  0  0  0  0  0  0  0  0
   -5.5916   -4.6109    5.1263 C   0  0  0  0  0  0  0  0  0  0  0  0
   -6.3758   -5.7482    5.1755 C   0  0  0  0  0  0  0  0  0  0  0  0
   -5.8817   -6.9494    4.7024 C   0  0  0  0  0  0  0  0  0  0  0  0
   -4.6048   -7.0125    4.1766 C   0  0  0  0  0  0  0  0  0  0  0  0
   -2.5476   -6.9281    1.0463 S   0  0  1  0  0  0  0  0  0  0  0  0
   -3.0987   -8.0310    1.7528 O   0  0  0  0  0  0  0  0  0  0  0  0
   -3.1215   -6.4012   -0.1420 O   0  0  0  0  0  0  0  0  0  0  0  0
   -0.8908   -7.3726    0.6441 C   0  0  0  0  0  0  0  0  0  0  0  0
   -0.2498   -6.7622   -0.4177 C   0  0  0  0  0  0  0  0  0  0  0  0
    1.0501   -7.1109   -0.7333 C   0  0  0  0  0  0  0  0  0  0  0  0
    1.7092   -8.0697    0.0132 C   0  0  0  0  0  0  0  0  0  0  0  0
    3.1261   -8.4502   -0.3312 C   0  0  1  0  0  0  0  0  0  0  0  0
    1.0687   -8.6791    1.0759 C   0  0  0  0  0  0  0  0  0  0  0  0
   -0.2299   -8.3276    1.3938 C   0  0  0  0  0  0  0  0  0  0  0  0
    1.0053    1.8021    0.0021 H   0  0  0  0  0  0  0  0  0  0  0  0
   -0.5445    1.7859   -0.8732 H   0  0  0  0  0  0  0  0  0  0  0  0
   -0.5275    1.7763    0.9067 H   0  0  0  0  0  0  0  0  0  0  0  0
    1.7103   -0.2468    1.1385 H   0  0  0  0  0  0  0  0  0  0  0  0
    0.1775   -0.2725    2.0430 H   0  0  0  0  0  0  0  0  0  0  0  0
    1.1876   -3.6222   -0.4173 H   0  0  0  0  0  0  0  0  0  0  0  0
    0.6294   -2.0960   -1.1435 H   0  0  0  0  0  0  0  0  0  0  0  0
    2.2488   -2.1932   -0.4112 H   0  0  0  0  0  0  0  0  0  0  0  0
   -1.4815   -1.9728    0.8682 H   0  0  0  0  0  0  0  0  0  0  0  0
   -2.9936   -3.6534    2.3351 H   0  0  0  0  0  0  0  0  0  0  0  0
   -2.9181   -4.2431    0.6574 H   0  0  0  0  0  0  0  0  0  0  0  0
   -2.0131   -6.9410    3.7318 H   0  0  0  0  0  0  0  0  0  0  0  0
   -1.7948   -5.2040    4.0537 H   0  0  0  0  0  0  0  0  0  0  0  0
   -3.7005   -3.7863    4.5661 H   0  0  0  0  0  0  0  0  0  0  0  0
   -5.9777   -3.6724    5.4960 H   0  0  0  0  0  0  0  0  0  0  0  0
   -7.3744   -5.6984    5.5839 H   0  0  0  0  0  0  0  0  0  0  0  0
   -6.4942   -7.8381    4.7411 H   0  0  0  0  0  0  0  0  0  0  0  0
   -4.2187   -7.9510    3.8069 H   0  0  0  0  0  0  0  0  0  0  0  0
   -0.7647   -6.0131   -1.0010 H   0  0  0  0  0  0  0  0  0  0  0  0
    1.5506   -6.6345   -1.5634 H   0  0  0  0  0  0  0  0  0  0  0  0
    3.8176   -7.8101    0.2168 H   0  0  0  0  0  0  0  0  0  0  0  0
    3.2996   -9.4908   -0.0573 H   0  0  0  0  0  0  0  0  0  0  0  0
    3.2859   -8.3248   -1.4021 H   0  0  0  0  0  0  0  0  0  0  0  0
    1.5837   -9.4278    1.6593 H   0  0  0  0  0  0  0  0  0  0  0  0
   -0.7303   -8.8037    2.2241 H   0  0  0  0  0  0  0  0  0  0  0  0
  1  2  1  0
  1 29  1  6
  1 30  1  0
  1 31  1  0
  2  3  1  0
  3  4  1  0
  3 32  1  1
  3 33  1  0
  4  5  1  1
  4  6  1  0
  4  7  1  0
  6 34  1  6
  6 35  1  0
  6 36  1  0
  7  8  1  0
  7 37  1  0
  8  9  2  0
  8 10  1  0
 10 11  1  0
 10 38  1  1
 10 39  1  0
 11 12  1  0
 19 11  1  1
 12 13  1  0
 12 40  1  6
 12 41  1  0
 13 18  2  0
 13 14  1  0
 14 15  2  0
 14 42  1  0
 15 16  1  0
 15 43  1  0
 16 17  2  0
 16 44  1  0
 17 18  1  0
 17 45  1  0
 18 46  1  0
 19 20  2  0
 19 21  2  0
 19 22  1  0
 22 28  2  0
 22 23  1  0
 23 24  2  0
 23 47  1  0
 24 25  1  0
 24 48  1  0
 25 26  1  0
 25 27  2  0
 26 49  1  1
 26 50  1  0
 26 51  1  0
 27 28  1  0
 27 52  1  0
 28 53  1  0
M  END
$$$$
