ZINC000059942109
     RDKit          3D

 61 64  0  0  0  0  0  0  0  0999 V2000
   -9.2825   -5.8521    3.9395 C   0  0  1  0  0  0  0  0  0  0  0  0
   -9.5351   -4.5966    3.3056 O   0  0  0  0  0  0  0  0  0  0  0  0
   -8.5813   -4.1314    2.4551 C   0  0  0  0  0  0  0  0  0  0  0  0
   -7.4309   -4.8699    2.2314 C   0  0  0  0  0  0  0  0  0  0  0  0
   -6.4622   -4.3957    1.3659 C   0  0  0  0  0  0  0  0  0  0  0  0
   -6.6386   -3.1851    0.7228 C   0  0  0  0  0  0  0  0  0  0  0  0
   -5.4003   -2.5861   -0.3784 S   0  0  1  0  0  0  0  0  0  0  0  0
   -5.5433   -1.1727   -0.4123 O   0  0  0  0  0  0  0  0  0  0  0  0
   -4.1906   -3.2364   -0.0139 O   0  0  0  0  0  0  0  0  0  0  0  0
   -5.7864   -3.1316   -1.8935 N   0  0  0  0  0  0  0  0  0  0  0  0
   -5.3939   -4.4807   -2.3084 C   0  0  1  0  0  0  0  0  0  0  0  0
   -6.5364   -5.4331   -2.0661 C   0  0  0  0  0  0  0  0  0  0  0  0
   -7.5762   -5.0251   -1.5935 O   0  0  0  0  0  0  0  0  0  0  0  0
   -6.4028   -6.7382   -2.3747 N   0  0  0  0  0  0  0  0  0  0  0  0
   -7.4226   -7.6426   -2.0508 C   0  0  0  0  0  0  0  0  0  0  0  0
   -7.6653   -8.7375   -2.8687 C   0  0  0  0  0  0  0  0  0  0  0  0
   -8.6724   -9.6285   -2.5509 C   0  0  0  0  0  0  0  0  0  0  0  0
   -9.4432   -9.4325   -1.4149 C   0  0  0  0  0  0  0  0  0  0  0  0
  -10.4371  -10.3166   -1.1224 O   0  0  0  0  0  0  0  0  0  0  0  0
  -10.9439  -10.2956    0.2164 C   0  0  1  0  0  0  0  0  0  0  0  0
  -11.1880   -8.8339    0.6152 C   0  0  1  0  0  0  0  0  0  0  0  0
   -9.9429   -8.1323    0.5299 O   0  0  0  0  0  0  0  0  0  0  0  0
   -9.2000   -8.3387   -0.5918 C   0  0  0  0  0  0  0  0  0  0  0  0
   -8.1871   -7.4473   -0.9089 C   0  0  0  0  0  0  0  0  0  0  0  0
   -6.5203   -2.2651   -2.8191 C   0  0  1  0  0  0  0  0  0  0  0  0
   -5.5465   -1.5677   -3.7335 C   0  0  0  0  0  0  0  0  0  0  0  0
   -4.9979   -0.3542   -3.3627 C   0  0  0  0  0  0  0  0  0  0  0  0
   -4.1046    0.2856   -4.2015 C   0  0  0  0  0  0  0  0  0  0  0  0
   -3.7595   -0.2883   -5.4109 C   0  0  0  0  0  0  0  0  0  0  0  0
   -4.3074   -1.5022   -5.7812 C   0  0  0  0  0  0  0  0  0  0  0  0
   -5.1975   -2.1440   -4.9405 C   0  0  0  0  0  0  0  0  0  0  0  0
   -7.7849   -2.4432    0.9413 C   0  0  0  0  0  0  0  0  0  0  0  0
   -8.7615   -2.9149    1.8030 C   0  0  0  0  0  0  0  0  0  0  0  0
   -9.8894   -2.1865    2.0190 O   0  0  0  0  0  0  0  0  0  0  0  0
  -10.0017   -0.9430    1.3239 C   0  0  1  0  0  0  0  0  0  0  0  0
  -10.1197   -6.1058    4.5897 H   0  0  0  0  0  0  0  0  0  0  0  0
   -9.1648   -6.6253    3.1803 H   0  0  0  0  0  0  0  0  0  0  0  0
   -8.3702   -5.7830    4.5321 H   0  0  0  0  0  0  0  0  0  0  0  0
   -7.2903   -5.8158    2.7332 H   0  0  0  0  0  0  0  0  0  0  0  0
   -5.5657   -4.9724    1.1924 H   0  0  0  0  0  0  0  0  0  0  0  0
   -5.1433   -4.4762   -3.3692 H   0  0  0  0  0  0  0  0  0  0  0  0
   -4.5260   -4.8002   -1.7315 H   0  0  0  0  0  0  0  0  0  0  0  0
   -5.6005   -7.0514   -2.8210 H   0  0  0  0  0  0  0  0  0  0  0  0
   -7.0669   -8.8929   -3.7542 H   0  0  0  0  0  0  0  0  0  0  0  0
   -8.8599  -10.4795   -3.1889 H   0  0  0  0  0  0  0  0  0  0  0  0
  -11.8807  -10.8508    0.2636 H   0  0  0  0  0  0  0  0  0  0  0  0
  -10.2157  -10.7442    0.8922 H   0  0  0  0  0  0  0  0  0  0  0  0
  -11.9112   -8.3833   -0.0645 H   0  0  0  0  0  0  0  0  0  0  0  0
  -11.5656   -8.7897    1.6367 H   0  0  0  0  0  0  0  0  0  0  0  0
   -7.9952   -6.5984   -0.2694 H   0  0  0  0  0  0  0  0  0  0  0  0
   -7.2083   -2.8674   -3.4124 H   0  0  0  0  0  0  0  0  0  0  0  0
   -7.0828   -1.5227   -2.2531 H   0  0  0  0  0  0  0  0  0  0  0  0
   -5.2674    0.0941   -2.4179 H   0  0  0  0  0  0  0  0  0  0  0  0
   -3.6765    1.2340   -3.9122 H   0  0  0  0  0  0  0  0  0  0  0  0
   -3.0621    0.2119   -6.0665 H   0  0  0  0  0  0  0  0  0  0  0  0
   -4.0381   -1.9503   -6.7262 H   0  0  0  0  0  0  0  0  0  0  0  0
   -5.6255   -3.0924   -5.2299 H   0  0  0  0  0  0  0  0  0  0  0  0
   -7.9203   -1.4975    0.4375 H   0  0  0  0  0  0  0  0  0  0  0  0
   -9.1742   -0.2925    1.6071 H   0  0  0  0  0  0  0  0  0  0  0  0
   -9.9708   -1.1234    0.2493 H   0  0  0  0  0  0  0  0  0  0  0  0
  -10.9457   -0.4647    1.5850 H   0  0  0  0  0  0  0  0  0  0  0  0
  1  2  1  0
  1 36  1  1
  1 37  1  0
  1 38  1  0
  2  3  1  0
  3 33  2  0
  3  4  1  0
  4  5  2  0
  4 39  1  0
  5  6  1  0
  5 40  1  0
  6  7  1  0
  6 32  2  0
  7  8  2  0
  7  9  2  0
  7 10  1  6
 10 11  1  0
 10 25  1  0
 11 12  1  0
 11 41  1  6
 11 42  1  0
 12 13  2  0
 12 14  1  0
 14 15  1  0
 14 43  1  0
 15 24  2  0
 15 16  1  0
 16 17  2  0
 16 44  1  0
 17 18  1  0
 17 45  1  0
 18 23  2  0
 18 19  1  0
 19 20  1  0
 20 21  1  0
 20 46  1  6
 20 47  1  0
 21 22  1  0
 21 48  1  6
 21 49  1  0
 22 23  1  0
 23 24  1  0
 24 50  1  0
 25 26  1  0
 25 51  1  6
 25 52  1  0
 26 31  2  0
 26 27  1  0
 27 28  2  0
 27 53  1  0
 28 29  1  0
 28 54  1  0
 29 30  2  0
 29 55  1  0
 30 31  1  0
 30 56  1  0
 31 57  1  0
 32 33  1  0
 32 58  1  0
 33 34  1  0
 34 35  1  0
 35 59  1  1
 35 60  1  0
 35 61  1  0
M  END
$$$$
