ZINC000007703268
     RDKit          3D

 33 34  0  0  1  0  0  0  0  0999 V2000
   -0.0187    1.5258    0.0104 C   0  0  1  0  0  0  0  0  0  0  0  0
    0.0021   -0.0041    0.0020 C   0  0  1  0  0  0  0  0  0  0  0  0
   -1.0205   -0.3814    0.0098 H   0  0  0  0  0  0  0  0  0  0  0  0
    0.6878   -0.4765   -1.2033 N   0  0  0  0  0  0  0  0  0  0  0  0
   -0.1875   -0.8749   -2.5515 S   0  0  1  0  0  0  0  0  0  0  0  0
    0.7554   -1.2569   -3.5436 O   0  0  0  0  0  0  0  0  0  0  0  0
   -1.2390   -1.7231   -2.1111 O   0  0  0  0  0  0  0  0  0  0  0  0
   -0.9508    0.6028   -3.1332 C   0  0  0  0  0  0  0  0  0  0  0  0
   -2.2030    0.9621   -2.6710 C   0  0  0  0  0  0  0  0  0  0  0  0
   -2.8018    2.1214   -3.1274 C   0  0  0  0  0  0  0  0  0  0  0  0
   -2.1482    2.9217   -4.0457 C   0  0  0  0  0  0  0  0  0  0  0  0
   -2.8013    4.1853   -4.5436 C   0  0  1  0  0  0  0  0  0  0  0  0
   -2.4464    5.2527   -3.7117 F   0  0  0  0  0  0  0  0  0  0  0  0
   -2.3724    4.4487   -5.8489 F   0  0  0  0  0  0  0  0  0  0  0  0
   -4.1913    4.0275   -4.5323 F   0  0  0  0  0  0  0  0  0  0  0  0
   -0.8954    2.5631   -4.5068 C   0  0  0  0  0  0  0  0  0  0  0  0
   -0.2949    1.4058   -4.0476 C   0  0  0  0  0  0  0  0  0  0  0  0
    0.7421   -0.5109    1.2415 C   0  0  1  0  0  0  0  0  0  0  0  0
    1.3697    0.5341    2.1662 C   0  0  1  0  0  0  0  0  0  0  0  0
    0.1144   -0.2216    2.6065 C   0  0  1  0  0  0  0  0  0  0  0  0
    1.0039    1.9031    0.0027 H   0  0  0  0  0  0  0  0  0  0  0  0
   -0.5459    1.8868   -0.8726 H   0  0  0  0  0  0  0  0  0  0  0  0
   -0.5289    1.8773    0.9072 H   0  0  0  0  0  0  0  0  0  0  0  0
    1.6545   -0.5560   -1.2117 H   0  0  0  0  0  0  0  0  0  0  0  0
   -2.7137    0.3369   -1.9536 H   0  0  0  0  0  0  0  0  0  0  0  0
   -3.7805    2.4017   -2.7668 H   0  0  0  0  0  0  0  0  0  0  0  0
   -0.3845    3.1886   -5.2240 H   0  0  0  0  0  0  0  0  0  0  0  0
    0.6839    1.1257   -4.4079 H   0  0  0  0  0  0  0  0  0  0  0  0
    1.2689   -1.4574    1.1203 H   0  0  0  0  0  0  0  0  0  0  0  0
    2.3098    0.2753    2.6533 H   0  0  0  0  0  0  0  0  0  0  0  0
    1.2554    1.5827    1.8914 H   0  0  0  0  0  0  0  0  0  0  0  0
   -0.8257    0.3298    2.6215 H   0  0  0  0  0  0  0  0  0  0  0  0
    0.2287   -0.9776    3.3834 H   0  0  0  0  0  0  0  0  0  0  0  0
  1  2  1  0
  1 21  1  6
  1 22  1  0
  1 23  1  0
  2  3  1  1
  2  4  1  0
  2 18  1  0
  5  4  1  1
  4 24  1  0
  5  6  2  0
  5  7  2  0
  5  8  1  0
  8 17  2  0
  8  9  1  0
  9 10  2  0
  9 25  1  0
 10 11  1  0
 10 26  1  0
 11 12  1  0
 11 16  2  0
 12 13  1  1
 12 14  1  0
 12 15  1  0
 16 17  1  0
 16 27  1  0
 17 28  1  0
 18 20  1  0
 18 19  1  0
 18 29  1  6
 19 20  1  0
 19 30  1  1
 19 31  1  0
 20 32  1  6
 20 33  1  0
M  END
$$$$
