ZINC000010365453
     RDKit          3D

 61 62  0  0  0  0  0  0  0  0999 V2000
    1.7503   -1.8472   -5.3054 C   0  0  1  0  0  0  0  0  0  0  0  0
    1.3980   -2.5221   -3.9783 C   0  0  1  0  0  0  0  0  0  0  0  0
    0.0444   -2.1320   -3.5762 N   0  0  0  0  0  0  0  0  0  0  0  0
   -1.1135   -2.8644   -4.0948 C   0  0  1  0  0  0  0  0  0  0  0  0
   -1.3686   -4.0970   -3.2250 C   0  0  1  0  0  0  0  0  0  0  0  0
   -0.1767   -0.8630   -2.5354 S   0  0  1  0  0  0  0  0  0  0  0  0
   -1.4403   -1.0661   -1.9179 O   0  0  0  0  0  0  0  0  0  0  0  0
    1.0337   -0.7290   -1.8032 O   0  0  0  0  0  0  0  0  0  0  0  0
   -0.3298    0.5939   -3.5145 C   0  0  0  0  0  0  0  0  0  0  0  0
    0.7970    1.3229   -3.8476 C   0  0  0  0  0  0  0  0  0  0  0  0
    0.6804    2.4653   -4.6149 C   0  0  0  0  0  0  0  0  0  0  0  0
   -0.5702    2.8815   -5.0522 C   0  0  0  0  0  0  0  0  0  0  0  0
   -0.6918    4.0383   -5.8301 N   0  0  0  0  0  0  0  0  0  0  0  0
    0.2854    4.3742   -6.6954 C   0  0  0  0  0  0  0  0  0  0  0  0
    1.2240    3.6263   -6.8704 O   0  0  0  0  0  0  0  0  0  0  0  0
    0.2116    5.6791   -7.4457 C   0  0  1  0  0  0  0  0  0  0  0  0
    1.4351    5.8147   -8.3544 C   0  0  1  0  0  0  0  0  0  0  0  0
    1.3614    7.1196   -9.1046 C   0  0  0  0  0  0  0  0  0  0  0  0
    0.7256    7.1770  -10.3308 C   0  0  0  0  0  0  0  0  0  0  0  0
    0.6580    8.3739  -11.0190 C   0  0  0  0  0  0  0  0  0  0  0  0
    1.2257    9.5137  -10.4808 C   0  0  0  0  0  0  0  0  0  0  0  0
    1.1525   10.8184  -11.2313 C   0  0  1  0  0  0  0  0  0  0  0  0
   -0.3131   11.2016  -11.4461 C   0  0  1  0  0  0  0  0  0  0  0  0
    1.8522   11.9122  -10.4220 C   0  0  1  0  0  0  0  0  0  0  0  0
    1.8439   10.6662  -12.5876 C   0  0  1  0  0  0  0  0  0  0  0  0
    1.8603    9.4566   -9.2540 C   0  0  0  0  0  0  0  0  0  0  0  0
    1.9245    8.2605   -8.5641 C   0  0  0  0  0  0  0  0  0  0  0  0
   -1.6999    2.1470   -4.7163 C   0  0  0  0  0  0  0  0  0  0  0  0
   -1.5760    1.0028   -3.9528 C   0  0  0  0  0  0  0  0  0  0  0  0
    1.0399   -2.1584   -6.0712 H   0  0  0  0  0  0  0  0  0  0  0  0
    1.7046   -0.7647   -5.1859 H   0  0  0  0  0  0  0  0  0  0  0  0
    2.7574   -2.1375   -5.6046 H   0  0  0  0  0  0  0  0  0  0  0  0
    1.4437   -3.6046   -4.0979 H   0  0  0  0  0  0  0  0  0  0  0  0
    2.1085   -2.2109   -3.2125 H   0  0  0  0  0  0  0  0  0  0  0  0
   -1.9909   -2.2179   -4.0750 H   0  0  0  0  0  0  0  0  0  0  0  0
   -0.9160   -3.1776   -5.1199 H   0  0  0  0  0  0  0  0  0  0  0  0
   -2.2302   -4.6419   -3.6109 H   0  0  0  0  0  0  0  0  0  0  0  0
   -0.4912   -4.7435   -3.2448 H   0  0  0  0  0  0  0  0  0  0  0  0
   -1.5662   -3.7838   -2.1999 H   0  0  0  0  0  0  0  0  0  0  0  0
    1.7693    0.9987   -3.5072 H   0  0  0  0  0  0  0  0  0  0  0  0
    1.5608    3.0346   -4.8741 H   0  0  0  0  0  0  0  0  0  0  0  0
   -1.4793    4.5984   -5.7465 H   0  0  0  0  0  0  0  0  0  0  0  0
   -0.6946    5.6995   -8.0510 H   0  0  0  0  0  0  0  0  0  0  0  0
    0.1930    6.5059   -6.7356 H   0  0  0  0  0  0  0  0  0  0  0  0
    2.3413    5.7943   -7.7491 H   0  0  0  0  0  0  0  0  0  0  0  0
    1.4537    4.9879   -9.0644 H   0  0  0  0  0  0  0  0  0  0  0  0
    0.2821    6.2865  -10.7513 H   0  0  0  0  0  0  0  0  0  0  0  0
    0.1620    8.4186  -11.9773 H   0  0  0  0  0  0  0  0  0  0  0  0
   -0.8057   11.3101  -10.4798 H   0  0  0  0  0  0  0  0  0  0  0  0
   -0.3661   12.1454  -11.9889 H   0  0  0  0  0  0  0  0  0  0  0  0
   -0.8116   10.4224  -12.0226 H   0  0  0  0  0  0  0  0  0  0  0  0
    2.8963   11.6393  -10.2690 H   0  0  0  0  0  0  0  0  0  0  0  0
    1.7992   12.8560  -10.9648 H   0  0  0  0  0  0  0  0  0  0  0  0
    1.3596   12.0207   -9.4558 H   0  0  0  0  0  0  0  0  0  0  0  0
    1.3454    9.8870  -13.1641 H   0  0  0  0  0  0  0  0  0  0  0  0
    1.7909   11.6099  -13.1304 H   0  0  0  0  0  0  0  0  0  0  0  0
    2.8880   10.3932  -12.4346 H   0  0  0  0  0  0  0  0  0  0  0  0
    2.3035   10.3471   -8.8334 H   0  0  0  0  0  0  0  0  0  0  0  0
    2.4203    8.2159   -7.6056 H   0  0  0  0  0  0  0  0  0  0  0  0
   -2.6739    2.4681   -5.0549 H   0  0  0  0  0  0  0  0  0  0  0  0
   -2.4541    0.4311   -3.6912 H   0  0  0  0  0  0  0  0  0  0  0  0
  1  2  1  0
  1 30  1  6
  1 31  1  0
  1 32  1  0
  2  3  1  0
  2 33  1  6
  2 34  1  0
  3  4  1  0
  6  3  1  6
  4  5  1  0
  4 35  1  6
  4 36  1  0
  5 37  1  6
  5 38  1  0
  5 39  1  0
  6  7  2  0
  6  8  2  0
  6  9  1  0
  9 29  2  0
  9 10  1  0
 10 11  2  0
 10 40  1  0
 11 12  1  0
 11 41  1  0
 12 13  1  0
 12 28  2  0
 13 14  1  0
 13 42  1  0
 14 15  2  0
 14 16  1  0
 16 17  1  0
 16 43  1  6
 16 44  1  0
 17 18  1  0
 17 45  1  1
 17 46  1  0
 18 27  2  0
 18 19  1  0
 19 20  2  0
 19 47  1  0
 20 21  1  0
 20 48  1  0
 22 21  1  1
 21 26  2  0
 22 23  1  0
 22 24  1  0
 22 25  1  0
 23 49  1  1
 23 50  1  0
 23 51  1  0
 24 52  1  1
 24 53  1  0
 24 54  1  0
 25 55  1  6
 25 56  1  0
 25 57  1  0
 26 27  1  0
 26 58  1  0
 27 59  1  0
 28 29  1  0
 28 60  1  0
 29 61  1  0
M  END
$$$$
