ZINC000408613787
     RDKit          3D

 69 71  0  0  1  0  0  0  0  0999 V2000
   -2.1983  -12.4012    5.7947 C   0  0  1  0  0  0  0  0  0  0  0  0
   -1.3879  -11.1659    5.3971 C   0  0  1  0  0  0  0  0  0  0  0  0
   -1.6145  -10.8714    4.0172 O   0  0  0  0  0  0  0  0  0  0  0  0
   -0.9641   -9.7955    3.5011 C   0  0  0  0  0  0  0  0  0  0  0  0
   -0.1208   -9.0422    4.3046 C   0  0  0  0  0  0  0  0  0  0  0  0
    0.5395   -7.9491    3.7774 C   0  0  0  0  0  0  0  0  0  0  0  0
    0.3601   -7.6056    2.4504 C   0  0  0  0  0  0  0  0  0  0  0  0
    1.2032   -6.2106    1.7812 S   0  0  1  0  0  0  0  0  0  0  0  0
    0.4342   -5.7721    0.6697 O   0  0  0  0  0  0  0  0  0  0  0  0
    1.5272   -5.3718    2.8815 O   0  0  0  0  0  0  0  0  0  0  0  0
    2.6422   -6.7551    1.1687 N   0  0  0  0  0  0  0  0  0  0  0  0
    3.7984   -6.9219    2.0528 C   0  0  1  0  0  0  0  0  0  0  0  0
    3.8696   -8.3521    2.5222 C   0  0  0  0  0  0  0  0  0  0  0  0
    3.0365   -9.1532    2.1546 O   0  0  0  0  0  0  0  0  0  0  0  0
    4.8590   -8.7410    3.3507 N   0  0  0  0  0  0  0  0  0  0  0  0
    4.9281  -10.1314    3.8071 C   0  0  1  0  0  0  0  0  0  0  0  0
    3.9188  -10.5211    3.9391 H   0  0  0  0  0  0  0  0  0  0  0  0
    5.6679  -10.9737    2.7659 C   0  0  1  0  0  0  0  0  0  0  0  0
    5.6774  -10.1941    5.1396 C   0  0  1  0  0  0  0  0  0  0  0  0
    4.8737   -9.4556    6.2119 C   0  0  1  0  0  0  0  0  0  0  0  0
    5.6116   -9.5174    7.5243 C   0  0  0  0  0  0  0  0  0  0  0  0
    5.3840  -10.5653    8.3966 C   0  0  0  0  0  0  0  0  0  0  0  0
    6.0609  -10.6220    9.6005 C   0  0  0  0  0  0  0  0  0  0  0  0
    6.9658   -9.6309    9.9320 C   0  0  0  0  0  0  0  0  0  0  0  0
    7.1940   -8.5834    9.0594 C   0  0  0  0  0  0  0  0  0  0  0  0
    6.5203   -8.5290    7.8535 C   0  0  0  0  0  0  0  0  0  0  0  0
    2.7590   -7.0699   -0.2573 C   0  0  1  0  0  0  0  0  0  0  0  0
    3.3279   -5.8817   -0.9891 C   0  0  0  0  0  0  0  0  0  0  0  0
    2.4810   -4.9748   -1.5984 C   0  0  0  0  0  0  0  0  0  0  0  0
    3.0029   -3.8849   -2.2696 C   0  0  0  0  0  0  0  0  0  0  0  0
    4.3716   -3.7016   -2.3313 C   0  0  0  0  0  0  0  0  0  0  0  0
    5.2185   -4.6080   -1.7213 C   0  0  0  0  0  0  0  0  0  0  0  0
    4.6965   -5.6956   -1.0464 C   0  0  0  0  0  0  0  0  0  0  0  0
   -0.4798   -8.3551    1.6472 C   0  0  0  0  0  0  0  0  0  0  0  0
   -1.1382   -9.4519    2.1681 C   0  0  0  0  0  0  0  0  0  0  0  0
   -2.0528  -10.2686    1.2921 C   0  0  1  0  0  0  0  0  0  0  0  0
   -1.8879  -13.2506    5.1861 H   0  0  0  0  0  0  0  0  0  0  0  0
   -2.0254  -12.6259    6.8472 H   0  0  0  0  0  0  0  0  0  0  0  0
   -3.2587  -12.2073    5.6339 H   0  0  0  0  0  0  0  0  0  0  0  0
   -1.6982  -10.3165    6.0056 H   0  0  0  0  0  0  0  0  0  0  0  0
   -0.3274  -11.3598    5.5578 H   0  0  0  0  0  0  0  0  0  0  0  0
    0.0191   -9.3098    5.3415 H   0  0  0  0  0  0  0  0  0  0  0  0
    1.1962   -7.3624    4.4026 H   0  0  0  0  0  0  0  0  0  0  0  0
    4.7100   -6.6719    1.5099 H   0  0  0  0  0  0  0  0  0  0  0  0
    3.6957   -6.2615    2.9138 H   0  0  0  0  0  0  0  0  0  0  0  0
    5.5252   -8.1003    3.6448 H   0  0  0  0  0  0  0  0  0  0  0  0
    6.6773  -10.5840    2.6339 H   0  0  0  0  0  0  0  0  0  0  0  0
    5.7194  -12.0082    3.1055 H   0  0  0  0  0  0  0  0  0  0  0  0
    5.1342  -10.9291    1.8166 H   0  0  0  0  0  0  0  0  0  0  0  0
    5.8066  -11.2353    5.4352 H   0  0  0  0  0  0  0  0  0  0  0  0
    6.6544   -9.7236    5.0296 H   0  0  0  0  0  0  0  0  0  0  0  0
    4.7444   -8.4144    5.9163 H   0  0  0  0  0  0  0  0  0  0  0  0
    3.8966   -9.9260    6.3219 H   0  0  0  0  0  0  0  0  0  0  0  0
    4.6771  -11.3397    8.1376 H   0  0  0  0  0  0  0  0  0  0  0  0
    5.8826  -11.4404   10.2823 H   0  0  0  0  0  0  0  0  0  0  0  0
    7.4941   -9.6748   10.8729 H   0  0  0  0  0  0  0  0  0  0  0  0
    7.9007   -7.8089    9.3185 H   0  0  0  0  0  0  0  0  0  0  0  0
    6.6986   -7.7106    7.1717 H   0  0  0  0  0  0  0  0  0  0  0  0
    3.4197   -7.9271   -0.3872 H   0  0  0  0  0  0  0  0  0  0  0  0
    1.7738   -7.3065   -0.6591 H   0  0  0  0  0  0  0  0  0  0  0  0
    1.4116   -5.1180   -1.5502 H   0  0  0  0  0  0  0  0  0  0  0  0
    2.3412   -3.1768   -2.7462 H   0  0  0  0  0  0  0  0  0  0  0  0
    4.7794   -2.8505   -2.8564 H   0  0  0  0  0  0  0  0  0  0  0  0
    6.2879   -4.4650   -1.7698 H   0  0  0  0  0  0  0  0  0  0  0  0
    5.3582   -6.4038   -0.5698 H   0  0  0  0  0  0  0  0  0  0  0  0
   -0.6181   -8.0849    0.6107 H   0  0  0  0  0  0  0  0  0  0  0  0
   -1.4829  -11.0661    0.8154 H   0  0  0  0  0  0  0  0  0  0  0  0
   -2.8464  -10.7027    1.9003 H   0  0  0  0  0  0  0  0  0  0  0  0
   -2.4909   -9.6278    0.5269 H   0  0  0  0  0  0  0  0  0  0  0  0
  1  2  1  0
  1 37  1  6
  1 38  1  0
  1 39  1  0
  2  3  1  0
  2 40  1  1
  2 41  1  0
  3  4  1  0
  4 35  2  0
  4  5  1  0
  5  6  2  0
  5 42  1  0
  6  7  1  0
  6 43  1  0
  7  8  1  0
  7 34  2  0
  8  9  2  0
  8 10  2  0
  8 11  1  6
 11 12  1  0
 11 27  1  0
 12 13  1  0
 12 44  1  6
 12 45  1  0
 13 14  2  0
 13 15  1  0
 15 16  1  0
 15 46  1  0
 16 17  1  1
 16 18  1  0
 16 19  1  0
 18 47  1  6
 18 48  1  0
 18 49  1  0
 19 20  1  0
 19 50  1  1
 19 51  1  0
 20 21  1  0
 20 52  1  6
 20 53  1  0
 21 26  2  0
 21 22  1  0
 22 23  2  0
 22 54  1  0
 23 24  1  0
 23 55  1  0
 24 25  2  0
 24 56  1  0
 25 26  1  0
 25 57  1  0
 26 58  1  0
 27 28  1  0
 27 59  1  1
 27 60  1  0
 28 33  2  0
 28 29  1  0
 29 30  2  0
 29 61  1  0
 30 31  1  0
 30 62  1  0
 31 32  2  0
 31 63  1  0
 32 33  1  0
 32 64  1  0
 33 65  1  0
 34 35  1  0
 34 66  1  0
 35 36  1  0
 36 67  1  6
 36 68  1  0
 36 69  1  0
M  END
$$$$
