ZINC000090608971
     RDKit          3D

 46 47  0  0  1  0  0  0  0  0999 V2000
   -2.3105    1.5115   -0.9257 C   0  0  1  0  0  0  0  0  0  0  0  0
   -2.0575    0.0956   -1.2245 N   0  0  1  0  0  0  0  0  0  0  0  0
   -2.9306   -0.4101   -1.2212 H   0  0  0  0  0  0  0  0  0  0  0  0
   -1.4291   -0.0209   -2.5472 C   0  0  1  0  0  0  0  0  0  0  0  0
   -1.1617   -0.4674   -0.2054 C   0  0  1  0  0  0  0  0  0  0  0  0
   -1.0112   -1.9727   -0.4342 C   0  0  2  0  0  0  0  0  0  0  0  0
   -0.7213   -2.1606   -1.4680 H   0  0  0  0  0  0  0  0  0  0  0  0
   -2.3446   -2.6804   -0.1315 C   0  0  1  0  0  0  0  0  0  0  0  0
   -2.4547   -4.2539   -0.8836 S   0  0  0  0  0  0  0  0  0  0  0  0
   -1.0724   -5.2065   -0.1551 C   0  0  1  0  0  0  0  0  0  0  0  0
    0.2313   -4.7577   -0.7357 C   0  0  1  0  0  0  0  0  0  0  0  0
    0.8847   -3.5877    0.0455 C   0  0  1  0  0  0  0  0  0  0  0  0
   -0.0182   -2.4978    0.4482 N   0  0  0  0  0  0  0  0  0  0  0  0
    0.1193   -1.8618    1.9710 S   0  0  1  0  0  0  0  0  0  0  0  0
   -1.1768   -1.4064    2.3343 O   0  0  0  0  0  0  0  0  0  0  0  0
    0.8534   -2.8078    2.7362 O   0  0  0  0  0  0  0  0  0  0  0  0
    1.1343   -0.4268    1.8473 C   0  0  0  0  0  0  0  0  0  0  0  0
    2.5108   -0.5527    1.8370 C   0  0  0  0  0  0  0  0  0  0  0  0
    3.3071    0.5731    1.7399 C   0  0  0  0  0  0  0  0  0  0  0  0
    2.7268    1.8247    1.6526 C   0  0  0  0  0  0  0  0  0  0  0  0
    3.5949    3.0520    1.5472 C   0  0  1  0  0  0  0  0  0  0  0  0
    3.8455    3.3317    0.1996 F   0  0  0  0  0  0  0  0  0  0  0  0
    2.9390    4.1390    2.1349 F   0  0  0  0  0  0  0  0  0  0  0  0
    4.8062    2.8248    2.2093 F   0  0  0  0  0  0  0  0  0  0  0  0
    1.3502    1.9505    1.6615 C   0  0  0  0  0  0  0  0  0  0  0  0
    0.5539    0.8244    1.7547 C   0  0  0  0  0  0  0  0  0  0  0  0
   -2.9033    1.9517   -1.7275 H   0  0  0  0  0  0  0  0  0  0  0  0
   -2.8549    1.5926    0.0152 H   0  0  0  0  0  0  0  0  0  0  0  0
   -1.3612    2.0407   -0.8430 H   0  0  0  0  0  0  0  0  0  0  0  0
   -1.3355   -1.0738   -2.8135 H   0  0  0  0  0  0  0  0  0  0  0  0
   -2.0453    0.4879   -3.2884 H   0  0  0  0  0  0  0  0  0  0  0  0
   -0.4400    0.4365   -2.5211 H   0  0  0  0  0  0  0  0  0  0  0  0
   -0.1846    0.0104   -0.2766 H   0  0  0  0  0  0  0  0  0  0  0  0
   -1.5813   -0.2906    0.7849 H   0  0  0  0  0  0  0  0  0  0  0  0
   -2.4442   -2.7979    0.9476 H   0  0  0  0  0  0  0  0  0  0  0  0
   -3.1636   -2.0588   -0.4933 H   0  0  0  0  0  0  0  0  0  0  0  0
   -1.0583   -5.0538    0.9241 H   0  0  0  0  0  0  0  0  0  0  0  0
   -1.2148   -6.2666   -0.3648 H   0  0  0  0  0  0  0  0  0  0  0  0
    0.9205   -5.6021   -0.7410 H   0  0  0  0  0  0  0  0  0  0  0  0
    0.0643   -4.4403   -1.7650 H   0  0  0  0  0  0  0  0  0  0  0  0
    1.3482   -3.9955    0.9438 H   0  0  0  0  0  0  0  0  0  0  0  0
    1.6737   -3.1630   -0.5752 H   0  0  0  0  0  0  0  0  0  0  0  0
    2.9642   -1.5305    1.9052 H   0  0  0  0  0  0  0  0  0  0  0  0
    4.3826    0.4748    1.7326 H   0  0  0  0  0  0  0  0  0  0  0  0
    0.8969    2.9283    1.5929 H   0  0  0  0  0  0  0  0  0  0  0  0
   -0.5216    0.9226    1.7616 H   0  0  0  0  0  0  0  0  0  0  0  0
  1  2  1  0
  1 27  1  6
  1 28  1  0
  1 29  1  0
  2  3  1  6
  2  4  1  0
  2  5  1  0
  4 30  1  6
  4 31  1  0
  4 32  1  0
  5  6  1  0
  5 33  1  1
  5 34  1  0
  6  7  1  6
  6 13  1  0
  6  8  1  0
  8  9  1  0
  8 35  1  1
  8 36  1  0
  9 10  1  0
 10 11  1  0
 10 37  1  1
 10 38  1  0
 11 12  1  0
 11 39  1  6
 11 40  1  0
 12 13  1  0
 12 41  1  1
 12 42  1  0
 14 13  1  6
 14 15  2  0
 14 16  2  0
 14 17  1  0
 17 26  2  0
 17 18  1  0
 18 19  2  0
 18 43  1  0
 19 20  1  0
 19 44  1  0
 20 21  1  0
 20 25  2  0
 21 22  1  6
 21 23  1  0
 21 24  1  0
 25 26  1  0
 25 45  1  0
 26 46  1  0
M  CHG  1   2   1
M  END
$$$$
