ZINC000016661481
     RDKit          3D

 55 56  0  0  0  0  0  0  0  0999 V2000
   -0.0178    1.4608    0.0101 C   0  0  1  0  0  0  0  0  0  0  0  0
    0.0021   -0.0041    0.0020 N   0  0  0  0  0  0  0  0  0  0  0  0
    0.0241   -0.7433    1.2666 C   0  0  1  0  0  0  0  0  0  0  0  0
   -0.0004   -0.8243   -1.4366 S   0  0  1  0  0  0  0  0  0  0  0  0
   -0.5247   -2.1160   -1.1611 O   0  0  0  0  0  0  0  0  0  0  0  0
   -0.5660    0.0551   -2.3989 O   0  0  0  0  0  0  0  0  0  0  0  0
    1.6816   -1.0597   -1.9056 C   0  0  0  0  0  0  0  0  0  0  0  0
    2.3234   -0.1095   -2.6777 C   0  0  0  0  0  0  0  0  0  0  0  0
    3.6430   -0.2942   -3.0457 C   0  0  0  0  0  0  0  0  0  0  0  0
    4.3210   -1.4289   -2.6412 C   0  0  0  0  0  0  0  0  0  0  0  0
    5.7594   -1.6304   -3.0428 C   0  0  1  0  0  0  0  0  0  0  0  0
    6.6758   -1.0157   -1.9829 C   0  0  1  0  0  0  0  0  0  0  0  0
    8.1142   -1.2173   -2.3845 C   0  0  0  0  0  0  0  0  0  0  0  0
    8.3803   -1.7957   -3.4168 O   0  0  0  0  0  0  0  0  0  0  0  0
    9.1050   -0.7549   -1.5965 N   0  0  0  0  0  0  0  0  0  0  0  0
   10.5034   -0.9508   -1.9869 C   0  0  1  0  0  0  0  0  0  0  0  0
   10.9303    0.1720   -2.9343 C   0  0  1  0  0  0  0  0  0  0  0  0
   12.4572    0.2072   -3.0277 C   0  0  1  0  0  0  0  0  0  0  0  0
   12.9405   -0.9427   -3.9138 C   0  0  1  0  0  0  0  0  0  0  0  0
   12.8577   -2.2565   -3.1342 C   0  0  1  0  0  0  0  0  0  0  0  0
   13.3982   -2.0454   -1.7186 C   0  0  1  0  0  0  0  0  0  0  0  0
   12.2570   -2.1902   -0.7098 C   0  0  1  0  0  0  0  0  0  0  0  0
   11.3886   -0.9308   -0.7393 C   0  0  1  0  0  0  0  0  0  0  0  0
    3.6797   -2.3784   -1.8680 C   0  0  0  0  0  0  0  0  0  0  0  0
    2.3612   -2.1919   -1.4968 C   0  0  0  0  0  0  0  0  0  0  0  0
    1.0048    1.8381    0.0023 H   0  0  0  0  0  0  0  0  0  0  0  0
   -0.5450    1.8219   -0.8730 H   0  0  0  0  0  0  0  0  0  0  0  0
   -0.5280    1.8123    0.9069 H   0  0  0  0  0  0  0  0  0  0  0  0
    0.0224   -0.0395    2.0990 H   0  0  0  0  0  0  0  0  0  0  0  0
   -0.8567   -1.3823    1.3294 H   0  0  0  0  0  0  0  0  0  0  0  0
    0.9230   -1.3581    1.3125 H   0  0  0  0  0  0  0  0  0  0  0  0
    1.7936    0.7771   -2.9938 H   0  0  0  0  0  0  0  0  0  0  0  0
    4.1441    0.4479   -3.6495 H   0  0  0  0  0  0  0  0  0  0  0  0
    5.9668   -2.6971   -3.1279 H   0  0  0  0  0  0  0  0  0  0  0  0
    5.9396   -1.1475   -4.0032 H   0  0  0  0  0  0  0  0  0  0  0  0
    6.4684    0.0510   -1.8978 H   0  0  0  0  0  0  0  0  0  0  0  0
    6.4956   -1.4987   -1.0225 H   0  0  0  0  0  0  0  0  0  0  0  0
    8.8922   -0.2923   -0.7709 H   0  0  0  0  0  0  0  0  0  0  0  0
   10.6085   -1.9113   -2.4915 H   0  0  0  0  0  0  0  0  0  0  0  0
   10.5098   -0.0078   -3.9237 H   0  0  0  0  0  0  0  0  0  0  0  0
   10.5675    1.1266   -2.5533 H   0  0  0  0  0  0  0  0  0  0  0  0
   12.7730    1.1566   -3.4602 H   0  0  0  0  0  0  0  0  0  0  0  0
   12.8848    0.1021   -2.0306 H   0  0  0  0  0  0  0  0  0  0  0  0
   12.3112   -1.0067   -4.8015 H   0  0  0  0  0  0  0  0  0  0  0  0
   13.9731   -0.7620   -4.2126 H   0  0  0  0  0  0  0  0  0  0  0  0
   11.8189   -2.5827   -3.0815 H   0  0  0  0  0  0  0  0  0  0  0  0
   13.4520   -3.0173   -3.6402 H   0  0  0  0  0  0  0  0  0  0  0  0
   14.1659   -2.7899   -1.5081 H   0  0  0  0  0  0  0  0  0  0  0  0
   13.8287   -1.0472   -1.6393 H   0  0  0  0  0  0  0  0  0  0  0  0
   11.6493   -3.0569   -0.9703 H   0  0  0  0  0  0  0  0  0  0  0  0
   12.6703   -2.3233    0.2899 H   0  0  0  0  0  0  0  0  0  0  0  0
   12.0285   -0.0487   -0.7620 H   0  0  0  0  0  0  0  0  0  0  0  0
   10.7607   -0.9014    0.1512 H   0  0  0  0  0  0  0  0  0  0  0  0
    4.2095   -3.2648   -1.5516 H   0  0  0  0  0  0  0  0  0  0  0  0
    1.8602   -2.9338   -0.8927 H   0  0  0  0  0  0  0  0  0  0  0  0
  1  2  1  0
  1 26  1  6
  1 27  1  0
  1 28  1  0
  2  3  1  0
  4  2  1  1
  3 29  1  1
  3 30  1  0
  3 31  1  0
  4  5  2  0
  4  6  2  0
  4  7  1  0
  7 25  2  0
  7  8  1  0
  8  9  2  0
  8 32  1  0
  9 10  1  0
  9 33  1  0
 10 11  1  0
 10 24  2  0
 11 12  1  0
 11 34  1  6
 11 35  1  0
 12 13  1  0
 12 36  1  1
 12 37  1  0
 13 14  2  0
 13 15  1  0
 15 16  1  0
 15 38  1  0
 16 23  1  0
 16 17  1  0
 16 39  1  6
 17 18  1  0
 17 40  1  6
 17 41  1  0
 18 19  1  0
 18 42  1  6
 18 43  1  0
 19 20  1  0
 19 44  1  6
 19 45  1  0
 20 21  1  0
 20 46  1  1
 20 47  1  0
 21 22  1  0
 21 48  1  1
 21 49  1  0
 22 23  1  0
 22 50  1  6
 22 51  1  0
 23 52  1  6
 23 53  1  0
 24 25  1  0
 24 54  1  0
 25 55  1  0
M  END
$$$$
