ZINC000028208302
     RDKit          3D

 46 46  0  0  0  0  0  0  0  0999 V2000
   -0.0173    1.4248    0.0099 C   0  0  1  0  0  0  0  0  0  0  0  0
    0.0021   -0.0041    0.0020 O   0  0  0  0  0  0  0  0  0  0  0  0
    0.6518   -0.5703   -1.1379 C   0  0  1  0  0  0  0  0  0  0  0  0
    0.6131   -2.0967   -1.0411 C   0  0  1  0  0  0  0  0  0  0  0  0
    1.3087   -2.7029   -2.2615 C   0  0  1  0  0  0  0  0  0  0  0  0
    1.2717   -4.1645   -2.1688 N   0  0  0  0  0  0  0  0  0  0  0  0
    1.8279   -4.9157   -3.1398 C   0  0  0  0  0  0  0  0  0  0  0  0
    2.3592   -4.3816   -4.0903 O   0  0  0  0  0  0  0  0  0  0  0  0
    1.7898   -6.4192   -3.0444 C   0  0  1  0  0  0  0  0  0  0  0  0
    2.4855   -7.0254   -4.2649 C   0  0  1  0  0  0  0  0  0  0  0  0
    2.4473   -8.5289   -4.1695 C   0  0  0  0  0  0  0  0  0  0  0  0
    3.4694   -9.2072   -3.5321 C   0  0  0  0  0  0  0  0  0  0  0  0
    3.4344  -10.5863   -3.4447 C   0  0  0  0  0  0  0  0  0  0  0  0
    2.3772  -11.2871   -3.9942 C   0  0  0  0  0  0  0  0  0  0  0  0
    2.3329  -13.0451   -3.8832 S   0  0  1  0  0  0  0  0  0  0  0  0
    1.5067  -13.4937   -4.9488 O   0  0  0  0  0  0  0  0  0  0  0  0
    3.6777  -13.4702   -3.7105 O   0  0  0  0  0  0  0  0  0  0  0  0
    1.5378  -13.4279   -2.4819 N   0  0  0  0  0  0  0  0  0  0  0  0
    0.0841  -13.6092   -2.4906 C   0  0  1  0  0  0  0  0  0  0  0  0
    2.2881  -13.5853   -1.2336 C   0  0  1  0  0  0  0  0  0  0  0  0
    1.3544  -10.6088   -4.6304 C   0  0  0  0  0  0  0  0  0  0  0  0
    1.3875   -9.2294   -4.7145 C   0  0  0  0  0  0  0  0  0  0  0  0
    1.0053    1.8021    0.0021 H   0  0  0  0  0  0  0  0  0  0  0  0
   -0.5445    1.7859   -0.8732 H   0  0  0  0  0  0  0  0  0  0  0  0
   -0.5275    1.7763    0.9067 H   0  0  0  0  0  0  0  0  0  0  0  0
    0.1385   -0.2506   -2.0447 H   0  0  0  0  0  0  0  0  0  0  0  0
    1.6883   -0.2344   -1.1694 H   0  0  0  0  0  0  0  0  0  0  0  0
    1.1264   -2.4164   -0.1342 H   0  0  0  0  0  0  0  0  0  0  0  0
   -0.4234   -2.4326   -1.0095 H   0  0  0  0  0  0  0  0  0  0  0  0
    0.7954   -2.3833   -3.1684 H   0  0  0  0  0  0  0  0  0  0  0  0
    2.3452   -2.3671   -2.2930 H   0  0  0  0  0  0  0  0  0  0  0  0
    0.8468   -4.5917   -1.4086 H   0  0  0  0  0  0  0  0  0  0  0  0
    2.3031   -6.7389   -2.1376 H   0  0  0  0  0  0  0  0  0  0  0  0
    0.7533   -6.7551   -3.0129 H   0  0  0  0  0  0  0  0  0  0  0  0
    1.9722   -6.7057   -5.1717 H   0  0  0  0  0  0  0  0  0  0  0  0
    3.5219   -6.6895   -4.2964 H   0  0  0  0  0  0  0  0  0  0  0  0
    4.2954   -8.6596   -3.1028 H   0  0  0  0  0  0  0  0  0  0  0  0
    4.2332  -11.1163   -2.9473 H   0  0  0  0  0  0  0  0  0  0  0  0
   -0.1770  -14.4195   -3.1713 H   0  0  0  0  0  0  0  0  0  0  0  0
   -0.2574  -13.8550   -1.4851 H   0  0  0  0  0  0  0  0  0  0  0  0
   -0.3950  -12.6878   -2.8219 H   0  0  0  0  0  0  0  0  0  0  0  0
    2.3484  -12.6246   -0.7222 H   0  0  0  0  0  0  0  0  0  0  0  0
    1.7806  -14.3066   -0.5931 H   0  0  0  0  0  0  0  0  0  0  0  0
    3.2937  -13.9419   -1.4566 H   0  0  0  0  0  0  0  0  0  0  0  0
    0.5283  -11.1563   -5.0594 H   0  0  0  0  0  0  0  0  0  0  0  0
    0.5885   -8.6994   -5.2116 H   0  0  0  0  0  0  0  0  0  0  0  0
  1  2  1  0
  1 23  1  6
  1 24  1  0
  1 25  1  0
  2  3  1  0
  3  4  1  0
  3 26  1  6
  3 27  1  0
  4  5  1  0
  4 28  1  1
  4 29  1  0
  5  6  1  0
  5 30  1  6
  5 31  1  0
  6  7  1  0
  6 32  1  0
  7  8  2  0
  7  9  1  0
  9 10  1  0
  9 33  1  1
  9 34  1  0
 10 11  1  0
 10 35  1  6
 10 36  1  0
 11 22  2  0
 11 12  1  0
 12 13  2  0
 12 37  1  0
 13 14  1  0
 13 38  1  0
 14 15  1  0
 14 21  2  0
 15 16  2  0
 15 17  2  0
 15 18  1  1
 18 19  1  0
 18 20  1  0
 19 39  1  6
 19 40  1  0
 19 41  1  0
 20 42  1  1
 20 43  1  0
 20 44  1  0
 21 22  1  0
 21 45  1  0
 22 46  1  0
M  END
$$$$
