ZINC000078657678
     RDKit          3D

 37 38  0  0  1  0  0  0  0  0999 V2000
    0.0393    1.5241    0.0386 C   0  0  1  0  0  0  0  0  0  0  0  0
   -0.1121    0.0048   -0.0591 C   0  0  2  0  0  0  0  0  0  0  0  0
   -1.1703   -0.2528   -0.1032 H   0  0  0  0  0  0  0  0  0  0  0  0
    0.5121   -0.6411    1.1510 C   0  0  0  0  0  0  0  0  0  0  0  0
    1.8545   -0.4513    1.4207 C   0  0  0  0  0  0  0  0  0  0  0  0
    2.4270   -1.0437    2.5307 C   0  0  0  0  0  0  0  0  0  0  0  0
    1.6570   -1.8257    3.3712 C   0  0  0  0  0  0  0  0  0  0  0  0
    2.2813   -2.4719    4.5811 C   0  0  1  0  0  0  0  0  0  0  0  0
    2.1800   -1.6072    5.6761 F   0  0  0  0  0  0  0  0  0  0  0  0
    1.6138   -3.6676    4.8677 F   0  0  0  0  0  0  0  0  0  0  0  0
    3.6296   -2.7410    4.3225 F   0  0  0  0  0  0  0  0  0  0  0  0
    0.3143   -2.0144    3.1023 C   0  0  0  0  0  0  0  0  0  0  0  0
   -0.2591   -1.4188    1.9944 C   0  0  0  0  0  0  0  0  0  0  0  0
    0.7182   -0.5905   -1.5581 S   0  0  1  0  0  0  0  0  0  0  0  0
   -0.0101   -0.1352   -2.6901 O   0  0  0  0  0  0  0  0  0  0  0  0
    2.1035   -0.2906   -1.4578 O   0  0  0  0  0  0  0  0  0  0  0  0
    0.5039   -2.3863   -1.4171 C   0  0  1  0  0  0  0  0  0  0  0  0
   -0.9935   -2.7644   -1.5340 C   0  0  1  0  0  0  0  0  0  0  0  0
   -0.9379   -4.2406   -1.9997 C   0  0  1  0  0  0  0  0  0  0  0  0
    0.2530   -4.2837   -2.9793 C   0  0  1  0  0  0  0  0  0  0  0  0
    1.1697   -3.1047   -2.6089 C   0  0  1  0  0  0  0  0  0  0  0  0
    1.0949    1.7786    0.1343 H   0  0  0  0  0  0  0  0  0  0  0  0
   -0.3663    1.9882   -0.8604 H   0  0  0  0  0  0  0  0  0  0  0  0
   -0.5027    1.8879    0.9115 H   0  0  0  0  0  0  0  0  0  0  0  0
    2.4561    0.1596    0.7639 H   0  0  0  0  0  0  0  0  0  0  0  0
    3.4760   -0.8960    2.7409 H   0  0  0  0  0  0  0  0  0  0  0  0
   -0.2874   -2.6250    3.7592 H   0  0  0  0  0  0  0  0  0  0  0  0
   -1.3082   -1.5662    1.7843 H   0  0  0  0  0  0  0  0  0  0  0  0
    0.9179   -2.7461   -0.4751 H   0  0  0  0  0  0  0  0  0  0  0  0
   -1.4892   -2.6829   -0.5667 H   0  0  0  0  0  0  0  0  0  0  0  0
   -1.4919   -2.1431   -2.2782 H   0  0  0  0  0  0  0  0  0  0  0  0
   -0.7585   -4.9016   -1.1517 H   0  0  0  0  0  0  0  0  0  0  0  0
   -1.8615   -4.5148   -2.5096 H   0  0  0  0  0  0  0  0  0  0  0  0
    0.7923   -5.2246   -2.8703 H   0  0  0  0  0  0  0  0  0  0  0  0
   -0.1022   -4.1729   -4.0039 H   0  0  0  0  0  0  0  0  0  0  0  0
    1.2595   -2.4218   -3.4537 H   0  0  0  0  0  0  0  0  0  0  0  0
    2.1540   -3.4734   -2.3201 H   0  0  0  0  0  0  0  0  0  0  0  0
  1  2  1  0
  1 22  1  1
  1 23  1  0
  1 24  1  0
  2  3  1  6
  2  4  1  0
 14  2  1  1
  4 13  2  0
  4  5  1  0
  5  6  2  0
  5 25  1  0
  6  7  1  0
  6 26  1  0
  7  8  1  0
  7 12  2  0
  8  9  1  1
  8 10  1  0
  8 11  1  0
 12 13  1  0
 12 27  1  0
 13 28  1  0
 14 15  2  0
 14 16  2  0
 14 17  1  0
 17 21  1  0
 17 18  1  0
 17 29  1  1
 18 19  1  0
 18 30  1  1
 18 31  1  0
 19 20  1  0
 19 32  1  1
 19 33  1  0
 20 21  1  0
 20 34  1  6
 20 35  1  0
 21 36  1  6
 21 37  1  0
M  END
$$$$
