ZINC000067338662
     RDKit          3D

 43 44  0  0  1  0  0  0  0  0999 V2000
    0.2268    1.1230   -0.6735 C   0  0  1  0  0  0  0  0  0  0  0  0
    0.1724   -0.3491   -0.2602 C   0  0  1  0  0  0  0  0  0  0  0  0
   -0.8662   -0.6777   -0.2225 H   0  0  0  0  0  0  0  0  0  0  0  0
    0.9265   -1.1812   -1.2651 C   0  0  0  0  0  0  0  0  0  0  0  0
    2.0370   -1.5914   -1.0015 O   0  0  0  0  0  0  0  0  0  0  0  0
    0.3668   -1.4696   -2.4568 N   0  0  0  0  0  0  0  0  0  0  0  0
   -0.9996   -1.1173   -2.8695 C   0  0  1  0  0  0  0  0  0  0  0  0
   -1.2050   -1.6715   -4.2950 C   0  0  1  0  0  0  0  0  0  0  0  0
   -0.1391   -2.7952   -4.3879 C   0  0  1  0  0  0  0  0  0  0  0  0
    1.0256   -2.1850   -3.5648 C   0  0  1  0  0  0  0  0  0  0  0  0
    0.7831   -0.5080    1.0619 N   0  0  0  0  0  0  0  0  0  0  0  0
    2.0799   -0.0434    1.2926 C   0  0  0  0  0  0  0  0  0  0  0  0
    2.3291    1.3215    1.3570 C   0  0  0  0  0  0  0  0  0  0  0  0
    3.6127    1.7775    1.5857 C   0  0  0  0  0  0  0  0  0  0  0  0
    4.6489    0.8771    1.7504 C   0  0  0  0  0  0  0  0  0  0  0  0
    4.4043   -0.4827    1.6864 C   0  0  0  0  0  0  0  0  0  0  0  0
    5.5369   -1.4604    1.8666 C   0  0  1  0  0  0  0  0  0  0  0  0
    6.7280   -0.7595    2.0837 F   0  0  0  0  0  0  0  0  0  0  0  0
    5.2724   -2.2827    2.9671 F   0  0  0  0  0  0  0  0  0  0  0  0
    5.6615   -2.2467    0.7162 F   0  0  0  0  0  0  0  0  0  0  0  0
    3.1225   -0.9455    1.4638 C   0  0  0  0  0  0  0  0  0  0  0  0
   -0.0642   -1.2384    2.2830 S   0  0  1  0  0  0  0  0  0  0  0  0
    0.4119   -2.9859    2.1819 C   0  0  1  0  0  0  0  0  0  0  0  0
    0.4515   -0.6489    3.4687 O   0  0  0  0  0  0  0  0  0  0  0  0
   -1.4261   -1.0704    1.9138 O   0  0  0  0  0  0  0  0  0  0  0  0
    1.2660    1.4481   -0.7237 H   0  0  0  0  0  0  0  0  0  0  0  0
   -0.2392    1.2432   -1.6515 H   0  0  0  0  0  0  0  0  0  0  0  0
   -0.3076    1.7264    0.0602 H   0  0  0  0  0  0  0  0  0  0  0  0
   -1.7207   -1.5695   -2.1885 H   0  0  0  0  0  0  0  0  0  0  0  0
   -1.1182   -0.0338   -2.8723 H   0  0  0  0  0  0  0  0  0  0  0  0
   -2.2085   -2.0816   -4.4085 H   0  0  0  0  0  0  0  0  0  0  0  0
   -1.0165   -0.8986   -5.0401 H   0  0  0  0  0  0  0  0  0  0  0  0
   -0.5024   -3.7168   -3.9332 H   0  0  0  0  0  0  0  0  0  0  0  0
    0.1618   -2.9638   -5.4219 H   0  0  0  0  0  0  0  0  0  0  0  0
    1.6031   -1.4942   -4.1792 H   0  0  0  0  0  0  0  0  0  0  0  0
    1.6679   -2.9740   -3.1737 H   0  0  0  0  0  0  0  0  0  0  0  0
    1.5202    2.0254    1.2281 H   0  0  0  0  0  0  0  0  0  0  0  0
    3.8072    2.8387    1.6356 H   0  0  0  0  0  0  0  0  0  0  0  0
    5.6516    1.2363    1.9291 H   0  0  0  0  0  0  0  0  0  0  0  0
    2.9322   -2.0074    1.4139 H   0  0  0  0  0  0  0  0  0  0  0  0
    1.4989   -3.0664    2.1730 H   0  0  0  0  0  0  0  0  0  0  0  0
    0.0150   -3.5211    3.0444 H   0  0  0  0  0  0  0  0  0  0  0  0
    0.0079   -3.4202    1.2673 H   0  0  0  0  0  0  0  0  0  0  0  0
  1  2  1  0
  1 26  1  6
  1 27  1  0
  1 28  1  0
  2  3  1  1
  2  4  1  0
  2 11  1  0
  4  5  2  0
  4  6  1  0
  6 10  1  0
  6  7  1  0
  7  8  1  0
  7 29  1  1
  7 30  1  0
  8  9  1  0
  8 31  1  1
  8 32  1  0
  9 10  1  0
  9 33  1  1
  9 34  1  0
 10 35  1  6
 10 36  1  0
 11 12  1  0
 22 11  1  6
 12 21  2  0
 12 13  1  0
 13 14  2  0
 13 37  1  0
 14 15  1  0
 14 38  1  0
 15 16  2  0
 15 39  1  0
 16 17  1  0
 16 21  1  0
 17 18  1  1
 17 19  1  0
 17 20  1  0
 21 40  1  0
 22 23  1  0
 22 24  2  0
 22 25  2  0
 23 41  1  6
 23 42  1  0
 23 43  1  0
M  END
$$$$
