ZINC000002957923
     RDKit          3D

 53 54  0  0  0  0  0  0  0  0999 V2000
   -0.0173    1.4248    0.0099 C   0  0  1  0  0  0  0  0  0  0  0  0
    0.0021   -0.0041    0.0020 O   0  0  0  0  0  0  0  0  0  0  0  0
    0.6518   -0.5703   -1.1379 C   0  0  1  0  0  0  0  0  0  0  0  0
    0.6131   -2.0967   -1.0411 C   0  0  1  0  0  0  0  0  0  0  0  0
    1.3087   -2.7029   -2.2615 C   0  0  1  0  0  0  0  0  0  0  0  0
    1.2717   -4.1645   -2.1688 N   0  0  0  0  0  0  0  0  0  0  0  0
    1.8279   -4.9157   -3.1398 C   0  0  0  0  0  0  0  0  0  0  0  0
    2.3592   -4.3816   -4.0903 O   0  0  0  0  0  0  0  0  0  0  0  0
    1.7898   -6.4192   -3.0444 C   0  0  1  0  0  0  0  0  0  0  0  0
    2.4559   -6.9996   -4.2130 N   0  0  0  0  0  0  0  0  0  0  0  0
    3.9101   -7.1769   -4.2144 C   0  0  1  0  0  0  0  0  0  0  0  0
    4.2630   -8.5030   -3.5377 C   0  0  1  0  0  0  0  0  0  0  0  0
    5.7589   -8.6853   -3.5391 C   0  0  0  0  0  0  0  0  0  0  0  0
    6.3766   -9.3216   -4.5995 C   0  0  0  0  0  0  0  0  0  0  0  0
    7.7488   -9.4888   -4.6008 C   0  0  0  0  0  0  0  0  0  0  0  0
    8.5033   -9.0193   -3.5419 C   0  0  0  0  0  0  0  0  0  0  0  0
    7.8857   -8.3822   -2.4820 C   0  0  0  0  0  0  0  0  0  0  0  0
    6.5139   -8.2112   -2.4827 C   0  0  0  0  0  0  0  0  0  0  0  0
    1.5650   -7.4555   -5.5324 S   0  0  1  0  0  0  0  0  0  0  0  0
    2.2600   -8.5413   -6.1302 O   0  0  0  0  0  0  0  0  0  0  0  0
    0.2158   -7.5427   -5.0949 O   0  0  0  0  0  0  0  0  0  0  0  0
    1.6282   -6.1274   -6.6886 C   0  0  0  0  0  0  0  0  0  0  0  0
    0.6771   -5.1252   -6.6425 C   0  0  0  0  0  0  0  0  0  0  0  0
    0.7262   -4.0832   -7.5491 C   0  0  0  0  0  0  0  0  0  0  0  0
    1.7275   -4.0432   -8.5030 C   0  0  0  0  0  0  0  0  0  0  0  0
    1.7901   -2.7343   -9.6418 Cl  0  0  0  0  0  0  0  0  0  0  0  0
    2.6791   -5.0464   -8.5487 C   0  0  0  0  0  0  0  0  0  0  0  0
    2.6323   -6.0850   -7.6379 C   0  0  0  0  0  0  0  0  0  0  0  0
    1.0053    1.8021    0.0021 H   0  0  0  0  0  0  0  0  0  0  0  0
   -0.5445    1.7859   -0.8732 H   0  0  0  0  0  0  0  0  0  0  0  0
   -0.5275    1.7763    0.9067 H   0  0  0  0  0  0  0  0  0  0  0  0
    0.1385   -0.2506   -2.0447 H   0  0  0  0  0  0  0  0  0  0  0  0
    1.6883   -0.2344   -1.1694 H   0  0  0  0  0  0  0  0  0  0  0  0
    1.1264   -2.4164   -0.1342 H   0  0  0  0  0  0  0  0  0  0  0  0
   -0.4234   -2.4326   -1.0095 H   0  0  0  0  0  0  0  0  0  0  0  0
    0.7954   -2.3833   -3.1684 H   0  0  0  0  0  0  0  0  0  0  0  0
    2.3452   -2.3671   -2.2930 H   0  0  0  0  0  0  0  0  0  0  0  0
    0.8468   -4.5917   -1.4086 H   0  0  0  0  0  0  0  0  0  0  0  0
    2.3031   -6.7389   -2.1376 H   0  0  0  0  0  0  0  0  0  0  0  0
    0.7533   -6.7551   -3.0129 H   0  0  0  0  0  0  0  0  0  0  0  0
    4.2742   -7.1850   -5.2418 H   0  0  0  0  0  0  0  0  0  0  0  0
    4.3767   -6.3558   -3.6701 H   0  0  0  0  0  0  0  0  0  0  0  0
    3.8989   -8.4948   -2.5104 H   0  0  0  0  0  0  0  0  0  0  0  0
    3.7964   -9.3240   -4.0821 H   0  0  0  0  0  0  0  0  0  0  0  0
    5.7872   -9.6884   -5.4268 H   0  0  0  0  0  0  0  0  0  0  0  0
    8.2314   -9.9865   -5.4289 H   0  0  0  0  0  0  0  0  0  0  0  0
    9.5753   -9.1506   -3.5426 H   0  0  0  0  0  0  0  0  0  0  0  0
    8.4751   -8.0157   -1.6545 H   0  0  0  0  0  0  0  0  0  0  0  0
    6.0314   -7.7134   -1.6546 H   0  0  0  0  0  0  0  0  0  0  0  0
   -0.1047   -5.1568   -5.8980 H   0  0  0  0  0  0  0  0  0  0  0  0
   -0.0171   -3.3005   -7.5132 H   0  0  0  0  0  0  0  0  0  0  0  0
    3.4608   -5.0158   -9.2933 H   0  0  0  0  0  0  0  0  0  0  0  0
    3.3753   -6.8680   -7.6733 H   0  0  0  0  0  0  0  0  0  0  0  0
  1  2  1  0
  1 29  1  6
  1 30  1  0
  1 31  1  0
  2  3  1  0
  3  4  1  0
  3 32  1  6
  3 33  1  0
  4  5  1  0
  4 34  1  1
  4 35  1  0
  5  6  1  0
  5 36  1  6
  5 37  1  0
  6  7  1  0
  6 38  1  0
  7  8  2  0
  7  9  1  0
  9 10  1  0
  9 39  1  1
  9 40  1  0
 10 11  1  0
 19 10  1  1
 11 12  1  0
 11 41  1  6
 11 42  1  0
 12 13  1  0
 12 43  1  1
 12 44  1  0
 13 18  2  0
 13 14  1  0
 14 15  2  0
 14 45  1  0
 15 16  1  0
 15 46  1  0
 16 17  2  0
 16 47  1  0
 17 18  1  0
 17 48  1  0
 18 49  1  0
 19 20  2  0
 19 21  2  0
 19 22  1  0
 22 28  2  0
 22 23  1  0
 23 24  2  0
 23 50  1  0
 24 25  1  0
 24 51  1  0
 25 26  1  0
 25 27  2  0
 27 28  1  0
 27 52  1  0
 28 53  1  0
M  END
$$$$
