ZINC000008734522
     RDKit          3D

 42 44  0  0  0  0  0  0  0  0999 V2000
   -0.1494    0.0931    0.4662 O   0  0  0  0  0  0  0  0  0  0  0  0
   -0.0144    1.2129    0.0087 C   0  0  0  0  0  0  0  0  0  0  0  0
    1.2890    1.8793    0.0749 C   0  0  0  0  0  0  0  0  0  0  0  0
    2.5178    1.2592    0.1694 C   0  0  0  0  0  0  0  0  0  0  0  0
    3.4859    2.2670    0.2054 C   0  0  0  0  0  0  0  0  0  0  0  0
    5.2020    2.0318    0.3207 Cl  0  0  0  0  0  0  0  0  0  0  0  0
    2.8463    3.4618    0.1336 C   0  0  0  0  0  0  0  0  0  0  0  0
    3.6121    5.0197    0.1424 Cl  0  0  0  0  0  0  0  0  0  0  0  0
    1.5108    3.2391    0.0479 N   0  0  0  0  0  0  0  0  0  0  0  0
   -1.0624    1.8379   -0.5637 N   0  0  0  0  0  0  0  0  0  0  0  0
   -0.8808    3.1212   -1.2564 C   0  0  1  0  0  0  0  0  0  0  0  0
   -1.4178    2.9864   -2.6867 C   0  0  1  0  0  0  0  0  0  0  0  0
   -2.7626    2.3965   -2.6297 N   0  0  0  0  0  0  0  0  0  0  0  0
   -4.0501    3.1638   -3.3339 S   0  0  1  0  0  0  0  0  0  0  0  0
   -5.2127    2.6897   -2.6684 O   0  0  0  0  0  0  0  0  0  0  0  0
   -3.7047    4.5401   -3.4095 O   0  0  0  0  0  0  0  0  0  0  0  0
   -4.1570    2.5857   -4.9949 C   0  0  0  0  0  0  0  0  0  0  0  0
   -5.2581    1.8576   -5.4038 C   0  0  0  0  0  0  0  0  0  0  0  0
   -5.3421    1.4038   -6.7071 C   0  0  0  0  0  0  0  0  0  0  0  0
   -6.5431    0.6099   -7.1523 C   0  0  1  0  0  0  0  0  0  0  0  0
   -7.5234    1.4809   -7.6397 F   0  0  0  0  0  0  0  0  0  0  0  0
   -6.1653   -0.2797   -8.1638 F   0  0  0  0  0  0  0  0  0  0  0  0
   -7.0557   -0.1086   -6.0669 F   0  0  0  0  0  0  0  0  0  0  0  0
   -4.3251    1.6785   -7.6020 C   0  0  0  0  0  0  0  0  0  0  0  0
   -3.2232    2.4067   -7.1942 C   0  0  0  0  0  0  0  0  0  0  0  0
   -3.1410    2.8654   -5.8917 C   0  0  0  0  0  0  0  0  0  0  0  0
   -1.7575    3.7800   -5.3788 Cl  0  0  0  0  0  0  0  0  0  0  0  0
   -2.9443    1.1131   -1.9369 C   0  0  1  0  0  0  0  0  0  0  0  0
   -2.4063    1.2452   -0.5115 C   0  0  1  0  0  0  0  0  0  0  0  0
    2.6979    0.1950    0.2084 H   0  0  0  0  0  0  0  0  0  0  0  0
    0.8258    3.9231   -0.0148 H   0  0  0  0  0  0  0  0  0  0  0  0
   -1.4312    3.9017   -0.7310 H   0  0  0  0  0  0  0  0  0  0  0  0
    0.1791    3.3742   -1.2859 H   0  0  0  0  0  0  0  0  0  0  0  0
   -1.4695    3.9706   -3.1523 H   0  0  0  0  0  0  0  0  0  0  0  0
   -0.7587    2.3394   -3.2654 H   0  0  0  0  0  0  0  0  0  0  0  0
   -6.0530    1.6426   -4.7050 H   0  0  0  0  0  0  0  0  0  0  0  0
   -4.3913    1.3238   -8.6199 H   0  0  0  0  0  0  0  0  0  0  0  0
   -2.4286    2.6213   -7.8935 H   0  0  0  0  0  0  0  0  0  0  0  0
   -4.0041    0.8602   -1.9074 H   0  0  0  0  0  0  0  0  0  0  0  0
   -2.3939    0.3327   -2.4623 H   0  0  0  0  0  0  0  0  0  0  0  0
   -2.3551    0.2604   -0.0471 H   0  0  0  0  0  0  0  0  0  0  0  0
   -3.0635    1.8925    0.0691 H   0  0  0  0  0  0  0  0  0  0  0  0
  1  2  2  0
  2  3  1  0
  2 10  1  0
  3  9  1  0
  3  4  2  0
  4  5  1  0
  4 30  1  0
  5  6  1  0
  5  7  2  0
  7  8  1  0
  7  9  1  0
  9 31  1  0
 10 29  1  0
 10 11  1  0
 11 12  1  0
 11 32  1  1
 11 33  1  0
 12 13  1  0
 12 34  1  6
 12 35  1  0
 14 13  1  1
 13 28  1  0
 14 15  2  0
 14 16  2  0
 14 17  1  0
 17 26  2  0
 17 18  1  0
 18 19  2  0
 18 36  1  0
 19 20  1  0
 19 24  1  0
 20 21  1  6
 20 22  1  0
 20 23  1  0
 24 25  2  0
 24 37  1  0
 25 26  1  0
 25 38  1  0
 26 27  1  0
 28 29  1  0
 28 39  1  1
 28 40  1  0
 29 41  1  1
 29 42  1  0
M  END
$$$$
