ZINC000028049966
     RDKit          3D

 44 46  0  0  1  0  0  0  0  0999 V2000
    0.0243   -0.2734    0.0458 O   0  0  0  0  0  0  0  0  0  0  0  0
    0.1690    0.9255    0.1581 C   0  0  0  0  0  0  0  0  0  0  0  0
    1.4082    1.4517    0.2211 N   0  0  0  0  0  0  0  0  0  0  0  0
    2.5804    0.5756    0.1540 C   0  0  1  0  0  0  0  0  0  0  0  0
    3.8344    1.4064    0.2453 C   0  0  0  0  0  0  0  0  0  0  0  0
    4.4792    1.7354    1.3790 C   0  0  0  0  0  0  0  0  0  0  0  0
    5.5960    2.5166    1.0030 C   0  0  0  0  0  0  0  0  0  0  0  0
    5.5668    2.6183   -0.3380 C   0  0  0  0  0  0  0  0  0  0  0  0
    4.5008    1.9391   -0.7919 O   0  0  0  0  0  0  0  0  0  0  0  0
   -1.0367    1.8273    0.2209 C   0  0  1  0  0  0  0  0  0  0  0  0
   -1.0338    2.3851    1.1574 H   0  0  0  0  0  0  0  0  0  0  0  0
   -1.0234    2.8054   -0.9727 C   0  0  1  0  0  0  0  0  0  0  0  0
   -1.9633    2.1164   -1.9970 C   0  0  1  0  0  0  0  0  0  0  0  0
   -3.0236    1.4777   -1.0656 C   0  0  1  0  0  0  0  0  0  0  0  0
   -2.2657    1.0267    0.1197 N   0  0  0  0  0  0  0  0  0  0  0  0
   -2.7239   -0.1808    1.1561 S   0  0  1  0  0  0  0  0  0  0  0  0
   -2.1149    0.1110    2.4064 O   0  0  0  0  0  0  0  0  0  0  0  0
   -4.1266   -0.3390    0.9929 O   0  0  0  0  0  0  0  0  0  0  0  0
   -1.9845   -1.6723    0.5786 C   0  0  0  0  0  0  0  0  0  0  0  0
   -0.9948   -2.2861    1.3225 C   0  0  0  0  0  0  0  0  0  0  0  0
   -0.4145   -3.4565    0.8694 C   0  0  0  0  0  0  0  0  0  0  0  0
    0.6647   -4.1254    1.6811 C   0  0  1  0  0  0  0  0  0  0  0  0
    0.0829   -5.0340    2.5717 F   0  0  0  0  0  0  0  0  0  0  0  0
    1.5381   -4.8053    0.8254 F   0  0  0  0  0  0  0  0  0  0  0  0
    1.3751   -3.1578    2.3998 F   0  0  0  0  0  0  0  0  0  0  0  0
   -0.8241   -4.0134   -0.3274 C   0  0  0  0  0  0  0  0  0  0  0  0
   -1.8141   -3.4003   -1.0724 C   0  0  0  0  0  0  0  0  0  0  0  0
   -2.3987   -2.2322   -0.6171 C   0  0  0  0  0  0  0  0  0  0  0  0
   -3.6420   -1.4616   -1.5521 Cl  0  0  0  0  0  0  0  0  0  0  0  0
    1.5238    2.4106    0.3109 H   0  0  0  0  0  0  0  0  0  0  0  0
    2.5526   -0.1325    0.9821 H   0  0  0  0  0  0  0  0  0  0  0  0
    2.5733    0.0310   -0.7902 H   0  0  0  0  0  0  0  0  0  0  0  0
    4.1976    1.4567    2.3837 H   0  0  0  0  0  0  0  0  0  0  0  0
    6.3313    2.9491    1.6654 H   0  0  0  0  0  0  0  0  0  0  0  0
    6.2816    3.1523   -0.9466 H   0  0  0  0  0  0  0  0  0  0  0  0
   -1.4193    3.7775   -0.6791 H   0  0  0  0  0  0  0  0  0  0  0  0
   -0.0167    2.9044   -1.3788 H   0  0  0  0  0  0  0  0  0  0  0  0
   -2.4190    2.8489   -2.6633 H   0  0  0  0  0  0  0  0  0  0  0  0
   -1.4306    1.3529   -2.5641 H   0  0  0  0  0  0  0  0  0  0  0  0
   -3.7705    2.2175   -0.7777 H   0  0  0  0  0  0  0  0  0  0  0  0
   -3.4989    0.6291   -1.5577 H   0  0  0  0  0  0  0  0  0  0  0  0
   -0.6743   -1.8515    2.2578 H   0  0  0  0  0  0  0  0  0  0  0  0
   -0.3705   -4.9276   -0.6808 H   0  0  0  0  0  0  0  0  0  0  0  0
   -2.1341   -3.8355   -2.0076 H   0  0  0  0  0  0  0  0  0  0  0  0
  1  2  2  0
  2  3  1  0
  2 10  1  0
  3  4  1  0
  3 30  1  0
  4  5  1  0
  4 31  1  1
  4 32  1  0
  5  9  1  0
  5  6  2  0
  6  7  1  0
  6 33  1  0
  7  8  2  0
  7 34  1  0
  8  9  1  0
  8 35  1  0
 10 11  1  1
 10 15  1  0
 10 12  1  0
 12 13  1  0
 12 36  1  1
 12 37  1  0
 13 14  1  0
 13 38  1  6
 13 39  1  0
 14 15  1  0
 14 40  1  1
 14 41  1  0
 16 15  1  6
 16 17  2  0
 16 18  2  0
 16 19  1  0
 19 28  2  0
 19 20  1  0
 20 21  2  0
 20 42  1  0
 21 22  1  0
 21 26  1  0
 22 23  1  1
 22 24  1  0
 22 25  1  0
 26 27  2  0
 26 43  1  0
 27 28  1  0
 27 44  1  0
 28 29  1  0
M  END
$$$$
