ZINC000408618309
     RDKit          3D

 58 59  0  0  1  0  0  0  0  0999 V2000
   -0.0173    1.4248    0.0099 C   0  0  1  0  0  0  0  0  0  0  0  0
    0.0021   -0.0041    0.0020 O   0  0  0  0  0  0  0  0  0  0  0  0
   -1.2953   -0.6030    0.0112 C   0  0  1  0  0  0  0  0  0  0  0  0
   -1.1538   -2.1264    0.0017 C   0  0  2  0  0  0  0  0  0  0  0  0
   -2.1387   -2.5834    0.0982 H   0  0  0  0  0  0  0  0  0  0  0  0
   -0.2716   -2.5640    1.1726 C   0  0  1  0  0  0  0  0  0  0  0  0
   -0.5394   -2.5519   -1.2584 N   0  0  0  0  0  0  0  0  0  0  0  0
   -0.7570   -3.7964   -1.7277 C   0  0  0  0  0  0  0  0  0  0  0  0
   -1.4615   -4.5641   -1.1069 O   0  0  0  0  0  0  0  0  0  0  0  0
   -0.1250   -4.2341   -3.0239 C   0  0  1  0  0  0  0  0  0  0  0  0
   -0.5122   -5.6171   -3.3134 N   0  0  0  0  0  0  0  0  0  0  0  0
   -1.7767   -5.8956   -3.9986 C   0  0  1  0  0  0  0  0  0  0  0  0
   -1.5740   -5.7929   -5.4884 C   0  0  0  0  0  0  0  0  0  0  0  0
   -1.7547   -4.5811   -6.1286 C   0  0  0  0  0  0  0  0  0  0  0  0
   -1.5687   -4.4869   -7.4952 C   0  0  0  0  0  0  0  0  0  0  0  0
   -1.2017   -5.6044   -8.2214 C   0  0  0  0  0  0  0  0  0  0  0  0
   -1.0202   -6.8159   -7.5811 C   0  0  0  0  0  0  0  0  0  0  0  0
   -1.2020   -6.9092   -6.2139 C   0  0  0  0  0  0  0  0  0  0  0  0
    0.4796   -6.8655   -2.8661 S   0  0  1  0  0  0  0  0  0  0  0  0
    0.1604   -7.9567   -3.7185 O   0  0  0  0  0  0  0  0  0  0  0  0
    1.7874   -6.3202   -2.7583 O   0  0  0  0  0  0  0  0  0  0  0  0
    0.0070   -7.3500   -1.2393 C   0  0  0  0  0  0  0  0  0  0  0  0
    0.5976   -6.7513   -0.1426 C   0  0  0  0  0  0  0  0  0  0  0  0
    0.2304   -7.1284    1.1362 C   0  0  0  0  0  0  0  0  0  0  0  0
   -0.7317   -8.1079    1.3201 C   0  0  0  0  0  0  0  0  0  0  0  0
   -1.0943   -8.4796    2.5770 O   0  0  0  0  0  0  0  0  0  0  0  0
   -0.4419   -7.8180    3.6627 C   0  0  1  0  0  0  0  0  0  0  0  0
   -1.3269   -8.7105    0.2155 C   0  0  0  0  0  0  0  0  0  0  0  0
   -2.2723   -9.6723    0.3908 O   0  0  0  0  0  0  0  0  0  0  0  0
   -2.8399  -10.2466   -0.7881 C   0  0  1  0  0  0  0  0  0  0  0  0
   -0.9582   -8.3245   -1.0628 C   0  0  0  0  0  0  0  0  0  0  0  0
    1.0053    1.8021    0.0021 H   0  0  0  0  0  0  0  0  0  0  0  0
   -0.5445    1.7859   -0.8732 H   0  0  0  0  0  0  0  0  0  0  0  0
   -0.5275    1.7763    0.9067 H   0  0  0  0  0  0  0  0  0  0  0  0
   -1.8320   -0.2936    0.9080 H   0  0  0  0  0  0  0  0  0  0  0  0
   -1.8490   -0.2840   -0.8718 H   0  0  0  0  0  0  0  0  0  0  0  0
   -0.1708   -3.6493    1.1658 H   0  0  0  0  0  0  0  0  0  0  0  0
    0.7133   -2.1070    1.0761 H   0  0  0  0  0  0  0  0  0  0  0  0
   -0.7287   -2.2474    2.1101 H   0  0  0  0  0  0  0  0  0  0  0  0
    0.0240   -1.9380   -1.7549 H   0  0  0  0  0  0  0  0  0  0  0  0
   -0.4647   -3.5852   -3.8311 H   0  0  0  0  0  0  0  0  0  0  0  0
    0.9598   -4.1708   -2.9387 H   0  0  0  0  0  0  0  0  0  0  0  0
   -2.1130   -6.9012   -3.7462 H   0  0  0  0  0  0  0  0  0  0  0  0
   -2.5280   -5.1714   -3.6834 H   0  0  0  0  0  0  0  0  0  0  0  0
   -2.0414   -3.7081   -5.5612 H   0  0  0  0  0  0  0  0  0  0  0  0
   -1.7106   -3.5403   -7.9955 H   0  0  0  0  0  0  0  0  0  0  0  0
   -1.0571   -5.5309   -9.2892 H   0  0  0  0  0  0  0  0  0  0  0  0
   -0.7338   -7.6891   -8.1486 H   0  0  0  0  0  0  0  0  0  0  0  0
   -1.0601   -7.8558   -5.7136 H   0  0  0  0  0  0  0  0  0  0  0  0
    1.3479   -5.9876   -0.2846 H   0  0  0  0  0  0  0  0  0  0  0  0
    0.6940   -6.6595    1.9915 H   0  0  0  0  0  0  0  0  0  0  0  0
   -0.8226   -8.2075    4.6069 H   0  0  0  0  0  0  0  0  0  0  0  0
    0.6320   -7.9948    3.6033 H   0  0  0  0  0  0  0  0  0  0  0  0
   -0.6375   -6.7472    3.6060 H   0  0  0  0  0  0  0  0  0  0  0  0
   -3.5781  -10.9979   -0.5071 H   0  0  0  0  0  0  0  0  0  0  0  0
   -3.3219   -9.4661   -1.3768 H   0  0  0  0  0  0  0  0  0  0  0  0
   -2.0528  -10.7141   -1.3797 H   0  0  0  0  0  0  0  0  0  0  0  0
   -1.4185   -8.7905   -1.9215 H   0  0  0  0  0  0  0  0  0  0  0  0
  1  2  1  0
  1 32  1  6
  1 33  1  0
  1 34  1  0
  2  3  1  0
  3  4  1  0
  3 35  1  1
  3 36  1  0
  4  5  1  1
  4  6  1  0
  4  7  1  0
  6 37  1  1
  6 38  1  0
  6 39  1  0
  7  8  1  0
  7 40  1  0
  8  9  2  0
  8 10  1  0
 10 11  1  0
 10 41  1  6
 10 42  1  0
 11 12  1  0
 19 11  1  6
 12 13  1  0
 12 43  1  6
 12 44  1  0
 13 18  2  0
 13 14  1  0
 14 15  2  0
 14 45  1  0
 15 16  1  0
 15 46  1  0
 16 17  2  0
 16 47  1  0
 17 18  1  0
 17 48  1  0
 18 49  1  0
 19 20  2  0
 19 21  2  0
 19 22  1  0
 22 31  2  0
 22 23  1  0
 23 24  2  0
 23 50  1  0
 24 25  1  0
 24 51  1  0
 25 26  1  0
 25 28  2  0
 26 27  1  0
 27 52  1  1
 27 53  1  0
 27 54  1  0
 28 29  1  0
 28 31  1  0
 29 30  1  0
 30 55  1  1
 30 56  1  0
 30 57  1  0
 31 58  1  0
M  END
$$$$
