ZINC000058191032
     RDKit          3D

 40 40  0  0  0  0  0  0  0  0999 V2000
   -0.0187    1.5258    0.0104 C   0  0  1  0  0  0  0  0  0  0  0  0
    0.0021   -0.0041    0.0020 C   0  0  1  0  0  0  0  0  0  0  0  0
   -1.4117   -0.5257    0.0127 C   0  0  0  0  0  0  0  0  0  0  0  0
   -2.0507   -0.7660    1.2147 C   0  0  0  0  0  0  0  0  0  0  0  0
   -3.3476   -1.2445    1.2246 C   0  0  0  0  0  0  0  0  0  0  0  0
   -4.0056   -1.4822    0.0324 C   0  0  0  0  0  0  0  0  0  0  0  0
   -5.6584   -2.0926    0.0449 S   0  0  1  0  0  0  0  0  0  0  0  0
   -5.8564   -2.7406   -1.2042 O   0  0  0  0  0  0  0  0  0  0  0  0
   -5.8361   -2.7442    1.2951 O   0  0  0  0  0  0  0  0  0  0  0  0
   -6.6662   -0.7786    0.0549 N   0  0  0  0  0  0  0  0  0  0  0  0
   -7.1223   -0.1956   -1.2093 C   0  0  1  0  0  0  0  0  0  0  0  0
   -8.4870   -0.7809   -1.5779 C   0  0  1  0  0  0  0  0  0  0  0  0
   -9.4552   -0.3807   -0.6060 O   0  0  0  0  0  0  0  0  0  0  0  0
  -10.7713   -0.8768   -0.8582 C   0  0  1  0  0  0  0  0  0  0  0  0
   -7.1017   -0.1992    1.3281 C   0  0  1  0  0  0  0  0  0  0  0  0
   -6.1938    0.9460    1.6955 C   0  0  0  0  0  0  0  0  0  0  0  0
   -6.4044    1.6342    2.8350 N   0  0  0  0  0  0  0  0  0  0  0  0
   -5.2735    1.2485    0.9657 O   0  0  0  0  0  0  0  0  0  0  0  0
   -3.3671   -1.2406   -1.1697 C   0  0  0  0  0  0  0  0  0  0  0  0
   -2.0716   -0.7585   -1.1795 C   0  0  0  0  0  0  0  0  0  0  0  0
    1.0039    1.9031    0.0027 H   0  0  0  0  0  0  0  0  0  0  0  0
   -0.5459    1.8868   -0.8726 H   0  0  0  0  0  0  0  0  0  0  0  0
   -0.5289    1.8773    0.9072 H   0  0  0  0  0  0  0  0  0  0  0  0
    0.5123   -0.3556   -0.8948 H   0  0  0  0  0  0  0  0  0  0  0  0
    0.5293   -0.3651    0.8851 H   0  0  0  0  0  0  0  0  0  0  0  0
   -1.5366   -0.5803    2.1462 H   0  0  0  0  0  0  0  0  0  0  0  0
   -3.8465   -1.4329    2.1637 H   0  0  0  0  0  0  0  0  0  0  0  0
   -7.2079    0.8856   -1.1008 H   0  0  0  0  0  0  0  0  0  0  0  0
   -6.4037   -0.4260   -1.9958 H   0  0  0  0  0  0  0  0  0  0  0  0
   -8.7858   -0.4153   -2.5603 H   0  0  0  0  0  0  0  0  0  0  0  0
   -8.4220   -1.8687   -1.5994 H   0  0  0  0  0  0  0  0  0  0  0  0
  -10.7537   -1.9667   -0.8648 H   0  0  0  0  0  0  0  0  0  0  0  0
  -11.4467   -0.5291   -0.0765 H   0  0  0  0  0  0  0  0  0  0  0  0
  -11.1175   -0.5132   -1.8257 H   0  0  0  0  0  0  0  0  0  0  0  0
   -8.1245    0.1648    1.2306 H   0  0  0  0  0  0  0  0  0  0  0  0
   -7.0597   -0.9605    2.1070 H   0  0  0  0  0  0  0  0  0  0  0  0
   -7.1404    1.3923    3.4187 H   0  0  0  0  0  0  0  0  0  0  0  0
   -5.8200    2.3713    3.0715 H   0  0  0  0  0  0  0  0  0  0  0  0
   -3.8814   -1.4260   -2.1011 H   0  0  0  0  0  0  0  0  0  0  0  0
   -1.5728   -0.5697   -2.1186 H   0  0  0  0  0  0  0  0  0  0  0  0
  1  2  1  0
  1 21  1  6
  1 22  1  0
  1 23  1  0
  2  3  1  0
  2 24  1  6
  2 25  1  0
  3 20  2  0
  3  4  1  0
  4  5  2  0
  4 26  1  0
  5  6  1  0
  5 27  1  0
  6  7  1  0
  6 19  2  0
  7  8  2  0
  7  9  2  0
  7 10  1  1
 10 11  1  0
 10 15  1  0
 11 12  1  0
 11 28  1  1
 11 29  1  0
 12 13  1  0
 12 30  1  6
 12 31  1  0
 13 14  1  0
 14 32  1  6
 14 33  1  0
 14 34  1  0
 15 16  1  0
 15 35  1  6
 15 36  1  0
 16 17  1  0
 16 18  2  0
 17 37  1  0
 17 38  1  0
 19 20  1  0
 19 39  1  0
 20 40  1  0
M  END
$$$$
