ZINC000018079442
     RDKit          3D

 62 64  0  0  0  0  0  0  0  0999 V2000
   -0.0187    1.5258    0.0104 C   0  0  1  0  0  0  0  0  0  0  0  0
    0.0021   -0.0041    0.0020 C   0  0  1  0  0  0  0  0  0  0  0  0
    0.7106   -0.4894    1.1889 N   0  0  0  0  0  0  0  0  0  0  0  0
   -0.0062   -0.6460    2.4569 C   0  0  1  0  0  0  0  0  0  0  0  0
   -0.6935   -2.0126    2.4888 C   0  0  1  0  0  0  0  0  0  0  0  0
    2.3218   -0.8609    1.0971 S   0  0  1  0  0  0  0  0  0  0  0  0
    2.5823   -1.7795    2.1496 O   0  0  0  0  0  0  0  0  0  0  0  0
    2.5905   -1.1471   -0.2686 O   0  0  0  0  0  0  0  0  0  0  0  0
    3.2182    0.6060    1.4837 C   0  0  0  0  0  0  0  0  0  0  0  0
    3.5687    1.4871    0.4779 C   0  0  0  0  0  0  0  0  0  0  0  0
    4.2720    2.6379    0.7812 C   0  0  0  0  0  0  0  0  0  0  0  0
    4.6242    2.9079    2.0903 C   0  0  0  0  0  0  0  0  0  0  0  0
    5.3913    4.1622    2.4209 C   0  0  1  0  0  0  0  0  0  0  0  0
    4.4092    5.2965    2.7205 C   0  0  1  0  0  0  0  0  0  0  0  0
    5.1763    6.5509    3.0510 C   0  0  0  0  0  0  0  0  0  0  0  0
    6.3890    6.5388    3.0474 O   0  0  0  0  0  0  0  0  0  0  0  0
    4.5146    7.6861    3.3507 N   0  0  0  0  0  0  0  0  0  0  0  0
    5.2603    8.9055    3.6721 C   0  0  1  0  0  0  0  0  0  0  0  0
    4.4073   10.1105    3.3692 C   0  0  0  0  0  0  0  0  0  0  0  0
    3.0590   10.0970    3.6736 C   0  0  0  0  0  0  0  0  0  0  0  0
    2.2766   11.2022    3.3958 C   0  0  0  0  0  0  0  0  0  0  0  0
    2.8426   12.3211    2.8140 C   0  0  0  0  0  0  0  0  0  0  0  0
    4.1912   12.3350    2.5104 C   0  0  0  0  0  0  0  0  0  0  0  0
    4.9744   11.2313    2.7921 C   0  0  0  0  0  0  0  0  0  0  0  0
    5.6231    8.9017    5.1347 C   0  0  0  0  0  0  0  0  0  0  0  0
    4.7147    8.4444    6.0710 C   0  0  0  0  0  0  0  0  0  0  0  0
    5.0475    8.4409    7.4127 C   0  0  0  0  0  0  0  0  0  0  0  0
    6.2888    8.8943    7.8181 C   0  0  0  0  0  0  0  0  0  0  0  0
    7.1975    9.3508    6.8817 C   0  0  0  0  0  0  0  0  0  0  0  0
    6.8663    9.3503    5.5396 C   0  0  0  0  0  0  0  0  0  0  0  0
    4.2724    2.0275    3.0963 C   0  0  0  0  0  0  0  0  0  0  0  0
    3.5659    0.8785    2.7936 C   0  0  0  0  0  0  0  0  0  0  0  0
    1.0039    1.9031    0.0027 H   0  0  0  0  0  0  0  0  0  0  0  0
   -0.5459    1.8868   -0.8726 H   0  0  0  0  0  0  0  0  0  0  0  0
   -0.5289    1.8773    0.9072 H   0  0  0  0  0  0  0  0  0  0  0  0
   -1.0205   -0.3814    0.0098 H   0  0  0  0  0  0  0  0  0  0  0  0
    0.5123   -0.3556   -0.8948 H   0  0  0  0  0  0  0  0  0  0  0  0
    0.6997   -0.5749    3.2845 H   0  0  0  0  0  0  0  0  0  0  0  0
   -0.7557    0.1399    2.5501 H   0  0  0  0  0  0  0  0  0  0  0  0
    0.0560   -2.7985    2.3957 H   0  0  0  0  0  0  0  0  0  0  0  0
   -1.2268   -2.1291    3.4323 H   0  0  0  0  0  0  0  0  0  0  0  0
   -1.3993   -2.0837    1.6613 H   0  0  0  0  0  0  0  0  0  0  0  0
    3.2935    1.2761   -0.5449 H   0  0  0  0  0  0  0  0  0  0  0  0
    4.5465    3.3259   -0.0048 H   0  0  0  0  0  0  0  0  0  0  0  0
    6.0188    3.9848    3.2943 H   0  0  0  0  0  0  0  0  0  0  0  0
    6.0182    4.4388    1.5732 H   0  0  0  0  0  0  0  0  0  0  0  0
    3.7816    5.4739    1.8471 H   0  0  0  0  0  0  0  0  0  0  0  0
    3.7823    5.0200    3.5682 H   0  0  0  0  0  0  0  0  0  0  0  0
    3.5446    7.6958    3.3536 H   0  0  0  0  0  0  0  0  0  0  0  0
    6.1696    8.9440    3.0723 H   0  0  0  0  0  0  0  0  0  0  0  0
    2.6167    9.2228    4.1282 H   0  0  0  0  0  0  0  0  0  0  0  0
    1.2230   11.1914    3.6330 H   0  0  0  0  0  0  0  0  0  0  0  0
    2.2312   13.1844    2.5963 H   0  0  0  0  0  0  0  0  0  0  0  0
    4.6333   13.2090    2.0555 H   0  0  0  0  0  0  0  0  0  0  0  0
    6.0280   11.2421    2.5550 H   0  0  0  0  0  0  0  0  0  0  0  0
    3.7448    8.0901    5.7542 H   0  0  0  0  0  0  0  0  0  0  0  0
    4.3375    8.0842    8.1442 H   0  0  0  0  0  0  0  0  0  0  0  0
    6.5485    8.8923    8.8664 H   0  0  0  0  0  0  0  0  0  0  0  0
    8.1672    9.7054    7.1985 H   0  0  0  0  0  0  0  0  0  0  0  0
    7.5763    9.7070    4.8081 H   0  0  0  0  0  0  0  0  0  0  0  0
    4.5473    2.2386    4.1192 H   0  0  0  0  0  0  0  0  0  0  0  0
    3.2910    0.1907    3.5795 H   0  0  0  0  0  0  0  0  0  0  0  0
  1  2  1  0
  1 33  1  6
  1 34  1  0
  1 35  1  0
  2  3  1  0
  2 36  1  1
  2 37  1  0
  3  4  1  0
  6  3  1  6
  4  5  1  0
  4 38  1  1
  4 39  1  0
  5 40  1  6
  5 41  1  0
  5 42  1  0
  6  7  2  0
  6  8  2  0
  6  9  1  0
  9 32  2  0
  9 10  1  0
 10 11  2  0
 10 43  1  0
 11 12  1  0
 11 44  1  0
 12 13  1  0
 12 31  2  0
 13 14  1  0
 13 45  1  1
 13 46  1  0
 14 15  1  0
 14 47  1  6
 14 48  1  0
 15 16  2  0
 15 17  1  0
 17 18  1  0
 17 49  1  0
 18 19  1  0
 18 25  1  0
 18 50  1  6
 19 24  2  0
 19 20  1  0
 20 21  2  0
 20 51  1  0
 21 22  1  0
 21 52  1  0
 22 23  2  0
 22 53  1  0
 23 24  1  0
 23 54  1  0
 24 55  1  0
 25 30  2  0
 25 26  1  0
 26 27  2  0
 26 56  1  0
 27 28  1  0
 27 57  1  0
 28 29  2  0
 28 58  1  0
 29 30  1  0
 29 59  1  0
 30 60  1  0
 31 32  1  0
 31 61  1  0
 32 62  1  0
M  END
$$$$
