ZINC000003369802
     RDKit          3D

 35 36  0  0  0  0  0  0  0  0999 V2000
    0.0822    0.2500   -0.2062 O   0  0  0  0  0  0  0  0  0  0  0  0
    0.1157    1.4468    0.0245 C   0  0  0  0  0  0  0  0  0  0  0  0
    1.1832    1.9979    0.2323 O   0  0  0  0  0  0  0  0  0  0  0  0
   -1.1618    2.2459    0.0465 C   0  0  1  0  0  0  0  0  0  0  0  0
   -2.3171    1.3482    0.4952 C   0  0  1  0  0  0  0  0  0  0  0  0
   -3.6195    2.1547    0.4831 C   0  0  1  0  0  0  0  0  0  0  0  0
   -3.4374    3.3593    1.3043 N   0  0  0  0  0  0  0  0  0  0  0  0
   -4.4916    3.7108    2.5321 S   0  0  1  0  0  0  0  0  0  0  0  0
   -4.5349    5.1277    2.6306 O   0  0  0  0  0  0  0  0  0  0  0  0
   -5.6455    2.9114    2.3114 O   0  0  0  0  0  0  0  0  0  0  0  0
   -3.7627    3.1302    4.0275 C   0  0  0  0  0  0  0  0  0  0  0  0
   -3.3507    4.0312    4.9909 C   0  0  0  0  0  0  0  0  0  0  0  0
   -2.7787    3.5758    6.1644 C   0  0  0  0  0  0  0  0  0  0  0  0
   -2.3296    4.5590    7.2145 C   0  0  1  0  0  0  0  0  0  0  0  0
   -3.3834    4.8093    8.0999 F   0  0  0  0  0  0  0  0  0  0  0  0
   -1.2451    4.0257    7.9192 F   0  0  0  0  0  0  0  0  0  0  0  0
   -1.9434    5.7546    6.5992 F   0  0  0  0  0  0  0  0  0  0  0  0
   -2.6190    2.2191    6.3749 C   0  0  0  0  0  0  0  0  0  0  0  0
   -3.0307    1.3168    5.4120 C   0  0  0  0  0  0  0  0  0  0  0  0
   -3.6079    1.7716    4.2400 C   0  0  0  0  0  0  0  0  0  0  0  0
   -4.1252    0.6391    3.0303 Cl  0  0  0  0  0  0  0  0  0  0  0  0
   -2.3020    4.2460    1.0157 C   0  0  1  0  0  0  0  0  0  0  0  0
   -1.0143    3.4161    1.0217 C   0  0  1  0  0  0  0  0  0  0  0  0
   -1.3673    2.6297   -0.9528 H   0  0  0  0  0  0  0  0  0  0  0  0
   -2.4066    0.5024   -0.1866 H   0  0  0  0  0  0  0  0  0  0  0  0
   -2.1241    0.9839    1.5042 H   0  0  0  0  0  0  0  0  0  0  0  0
   -3.8614    2.4429   -0.5399 H   0  0  0  0  0  0  0  0  0  0  0  0
   -4.4275    1.5501    0.8954 H   0  0  0  0  0  0  0  0  0  0  0  0
   -3.4752    5.0914    4.8269 H   0  0  0  0  0  0  0  0  0  0  0  0
   -2.1721    1.8639    7.2917 H   0  0  0  0  0  0  0  0  0  0  0  0
   -2.9059    0.2567    5.5766 H   0  0  0  0  0  0  0  0  0  0  0  0
   -2.4364    4.7048    0.0361 H   0  0  0  0  0  0  0  0  0  0  0  0
   -2.2406    5.0214    1.7793 H   0  0  0  0  0  0  0  0  0  0  0  0
   -0.8336    3.0323    2.0258 H   0  0  0  0  0  0  0  0  0  0  0  0
   -0.1766    4.0422    0.7148 H   0  0  0  0  0  0  0  0  0  0  0  0
  1  2  2  0
  2  3  1  0
  2  4  1  0
  4 23  1  0
  4  5  1  0
  4 24  1  6
  5  6  1  0
  5 25  1  6
  5 26  1  0
  6  7  1  0
  6 27  1  6
  6 28  1  0
  8  7  1  6
  7 22  1  0
  8  9  2  0
  8 10  2  0
  8 11  1  0
 11 20  2  0
 11 12  1  0
 12 13  2  0
 12 29  1  0
 13 14  1  0
 13 18  1  0
 14 15  1  1
 14 16  1  0
 14 17  1  0
 18 19  2  0
 18 30  1  0
 19 20  1  0
 19 31  1  0
 20 21  1  0
 22 23  1  0
 22 32  1  6
 22 33  1  0
 23 34  1  1
 23 35  1  0
M  END
$$$$
