ZINC000014135589
     RDKit          3D

 55 56  0  0  1  0  0  0  0  0999 V2000
   -0.0187    1.5258    0.0104 C   0  0  1  0  0  0  0  0  0  0  0  0
    0.0021   -0.0041    0.0020 C   0  0  1  0  0  0  0  0  0  0  0  0
    0.7182   -0.4975   -1.2568 C   0  0  1  0  0  0  0  0  0  0  0  0
    0.7390   -2.0273   -1.2652 C   0  0  2  0  0  0  0  0  0  0  0  0
    1.1870   -2.3897   -0.3400 H   0  0  0  0  0  0  0  0  0  0  0  0
    1.5619   -2.5197   -2.4574 C   0  0  1  0  0  0  0  0  0  0  0  0
   -0.6313   -2.5337   -1.3752 N   0  0  0  0  0  0  0  0  0  0  0  0
   -0.9349   -3.7625   -0.9121 C   0  0  0  0  0  0  0  0  0  0  0  0
   -0.0737   -4.4490   -0.4043 O   0  0  0  0  0  0  0  0  0  0  0  0
   -2.3445   -4.2833   -1.0253 C   0  0  1  0  0  0  0  0  0  0  0  0
   -2.4146   -5.6306   -0.4541 N   0  0  0  0  0  0  0  0  0  0  0  0
   -2.6151   -5.8059    0.9865 C   0  0  1  0  0  0  0  0  0  0  0  0
   -4.1109   -5.7525    1.3035 C   0  0  1  0  0  0  0  0  0  0  0  0
   -4.3171   -5.9328    2.7854 C   0  0  0  0  0  0  0  0  0  0  0  0
   -4.4811   -7.2008    3.3111 C   0  0  0  0  0  0  0  0  0  0  0  0
   -4.6703   -7.3662    4.6704 C   0  0  0  0  0  0  0  0  0  0  0  0
   -4.6950   -6.2637    5.5040 C   0  0  0  0  0  0  0  0  0  0  0  0
   -4.5302   -4.9959    4.9784 C   0  0  0  0  0  0  0  0  0  0  0  0
   -4.3367   -4.8308    3.6196 C   0  0  0  0  0  0  0  0  0  0  0  0
   -2.2672   -6.9553   -1.4368 S   0  0  1  0  0  0  0  0  0  0  0  0
   -3.0324   -7.9896   -0.8335 O   0  0  0  0  0  0  0  0  0  0  0  0
   -2.4891   -6.4973   -2.7636 O   0  0  0  0  0  0  0  0  0  0  0  0
   -0.5849   -7.4740   -1.3643 C   0  0  0  0  0  0  0  0  0  0  0  0
    0.3363   -6.9582   -2.2567 C   0  0  0  0  0  0  0  0  0  0  0  0
    1.6562   -7.3645   -2.1999 C   0  0  0  0  0  0  0  0  0  0  0  0
    2.0554   -8.2872   -1.2498 C   0  0  0  0  0  0  0  0  0  0  0  0
    3.8611   -8.8429   -1.1711 Br  0  0  0  0  0  0  0  0  0  0  0  0
    1.1332   -8.8030   -0.3570 C   0  0  0  0  0  0  0  0  0  0  0  0
   -0.1854   -8.3922   -0.4112 C   0  0  0  0  0  0  0  0  0  0  0  0
    1.0039    1.9031    0.0027 H   0  0  0  0  0  0  0  0  0  0  0  0
   -0.5459    1.8868   -0.8726 H   0  0  0  0  0  0  0  0  0  0  0  0
   -0.5289    1.8773    0.9072 H   0  0  0  0  0  0  0  0  0  0  0  0
    0.5293   -0.3651    0.8851 H   0  0  0  0  0  0  0  0  0  0  0  0
   -1.0205   -0.3814    0.0098 H   0  0  0  0  0  0  0  0  0  0  0  0
    0.1910   -0.1364   -2.1398 H   0  0  0  0  0  0  0  0  0  0  0  0
    1.7408   -0.1202   -1.2645 H   0  0  0  0  0  0  0  0  0  0  0  0
    1.5766   -3.6095   -2.4634 H   0  0  0  0  0  0  0  0  0  0  0  0
    1.1138   -2.1573   -3.3826 H   0  0  0  0  0  0  0  0  0  0  0  0
    2.5814   -2.1429   -2.3755 H   0  0  0  0  0  0  0  0  0  0  0  0
   -1.3201   -1.9846   -1.7814 H   0  0  0  0  0  0  0  0  0  0  0  0
   -3.0206   -3.6229   -0.4824 H   0  0  0  0  0  0  0  0  0  0  0  0
   -2.6358   -4.3182   -2.0751 H   0  0  0  0  0  0  0  0  0  0  0  0
   -2.2126   -6.7708    1.2946 H   0  0  0  0  0  0  0  0  0  0  0  0
   -2.1010   -5.0093    1.5244 H   0  0  0  0  0  0  0  0  0  0  0  0
   -4.5134   -4.7875    0.9954 H   0  0  0  0  0  0  0  0  0  0  0  0
   -4.6249   -6.5491    0.7655 H   0  0  0  0  0  0  0  0  0  0  0  0
   -4.4617   -8.0621    2.6599 H   0  0  0  0  0  0  0  0  0  0  0  0
   -4.7990   -8.3567    5.0811 H   0  0  0  0  0  0  0  0  0  0  0  0
   -4.8435   -6.3929    6.5660 H   0  0  0  0  0  0  0  0  0  0  0  0
   -4.5498   -4.1345    5.6296 H   0  0  0  0  0  0  0  0  0  0  0  0
   -4.2079   -3.8403    3.2089 H   0  0  0  0  0  0  0  0  0  0  0  0
    0.0245   -6.2380   -2.9987 H   0  0  0  0  0  0  0  0  0  0  0  0
    2.3758   -6.9618   -2.8974 H   0  0  0  0  0  0  0  0  0  0  0  0
    1.4444   -9.5234    0.3850 H   0  0  0  0  0  0  0  0  0  0  0  0
   -0.9054   -8.7949    0.2858 H   0  0  0  0  0  0  0  0  0  0  0  0
  1  2  1  0
  1 30  1  6
  1 31  1  0
  1 32  1  0
  2  3  1  0
  2 33  1  1
  2 34  1  0
  3  4  1  0
  3 35  1  6
  3 36  1  0
  4  5  1  1
  4  6  1  0
  4  7  1  0
  6 37  1  6
  6 38  1  0
  6 39  1  0
  7  8  1  0
  7 40  1  0
  8  9  2  0
  8 10  1  0
 10 11  1  0
 10 41  1  1
 10 42  1  0
 11 12  1  0
 20 11  1  1
 12 13  1  0
 12 43  1  1
 12 44  1  0
 13 14  1  0
 13 45  1  6
 13 46  1  0
 14 19  2  0
 14 15  1  0
 15 16  2  0
 15 47  1  0
 16 17  1  0
 16 48  1  0
 17 18  2  0
 17 49  1  0
 18 19  1  0
 18 50  1  0
 19 51  1  0
 20 21  2  0
 20 22  2  0
 20 23  1  0
 23 29  2  0
 23 24  1  0
 24 25  2  0
 24 52  1  0
 25 26  1  0
 25 53  1  0
 26 27  1  0
 26 28  2  0
 28 29  1  0
 28 54  1  0
 29 55  1  0
M  END
$$$$
