ZINC000031625403
     RDKit          3D

 39 40  0  0  1  0  0  0  0  0999 V2000
   -0.0162    1.3436    0.0094 N   0  0  0  0  0  0  0  0  0  0  0  0
    0.0021   -0.0041    0.0020 C   0  0  0  0  0  0  0  0  0  0  0  0
    1.0605   -0.5961   -0.0113 O   0  0  0  0  0  0  0  0  0  0  0  0
   -1.2926   -0.7753    0.0102 C   0  0  1  0  0  0  0  0  0  0  0  0
   -1.8765   -0.5153   -0.8727 H   0  0  0  0  0  0  0  0  0  0  0  0
   -0.9933   -2.2761    0.0009 C   0  0  1  0  0  0  0  0  0  0  0  0
   -2.3075   -3.0599   -0.0239 C   0  0  1  0  0  0  0  0  0  0  0  0
   -3.1147   -2.7357    1.2371 C   0  0  1  0  0  0  0  0  0  0  0  0
   -3.2826   -1.2790    1.3296 N   0  0  0  0  0  0  0  0  0  0  0  0
   -4.5088   -0.7364    1.4655 C   0  0  0  0  0  0  0  0  0  0  0  0
   -4.6342    0.4676    1.5407 O   0  0  0  0  0  0  0  0  0  0  0  0
   -5.7240   -1.6256    1.5239 C   0  0  1  0  0  0  0  0  0  0  0  0
   -6.9258   -0.8011    1.6727 N   0  0  0  0  0  0  0  0  0  0  0  0
   -7.3708   -0.4815    2.9148 C   0  0  0  0  0  0  0  0  0  0  0  0
   -8.4789    0.2785    3.0776 C   0  0  0  0  0  0  0  0  0  0  0  0
   -8.9594    0.6241    4.4635 C   0  0  1  0  0  0  0  0  0  0  0  0
   -8.4537    1.8748    4.8340 F   0  0  0  0  0  0  0  0  0  0  0  0
  -10.3577    0.6642    4.4758 F   0  0  0  0  0  0  0  0  0  0  0  0
   -8.5127   -0.3459    5.3673 F   0  0  0  0  0  0  0  0  0  0  0  0
   -9.1790    0.7444    1.9559 C   0  0  0  0  0  0  0  0  0  0  0  0
   -8.7301    0.4227    0.7087 C   0  0  0  0  0  0  0  0  0  0  0  0
   -7.5733   -0.3642    0.5758 C   0  0  0  0  0  0  0  0  0  0  0  0
   -7.1606   -0.6595   -0.5344 O   0  0  0  0  0  0  0  0  0  0  0  0
   -2.0887   -0.4245    1.2712 C   0  0  1  0  0  0  0  0  0  0  0  0
    0.8172    1.8399    0.0041 H   0  0  0  0  0  0  0  0  0  0  0  0
   -0.8627    1.8171    0.0160 H   0  0  0  0  0  0  0  0  0  0  0  0
   -0.4060   -2.5237   -0.8833 H   0  0  0  0  0  0  0  0  0  0  0  0
   -0.4301   -2.5396    0.8962 H   0  0  0  0  0  0  0  0  0  0  0  0
   -2.8823   -2.7785   -0.9062 H   0  0  0  0  0  0  0  0  0  0  0  0
   -2.0933   -4.1283   -0.0541 H   0  0  0  0  0  0  0  0  0  0  0  0
   -4.0927   -3.2132    1.1778 H   0  0  0  0  0  0  0  0  0  0  0  0
   -2.5813   -3.0986    2.1158 H   0  0  0  0  0  0  0  0  0  0  0  0
   -5.7936   -2.2066    0.6043 H   0  0  0  0  0  0  0  0  0  0  0  0
   -5.6393   -2.3013    2.3750 H   0  0  0  0  0  0  0  0  0  0  0  0
   -6.8352   -0.8378    3.7823 H   0  0  0  0  0  0  0  0  0  0  0  0
  -10.0642    1.3510    2.0779 H   0  0  0  0  0  0  0  0  0  0  0  0
   -9.2560    0.7722   -0.1675 H   0  0  0  0  0  0  0  0  0  0  0  0
   -1.4712   -0.5986    2.1524 H   0  0  0  0  0  0  0  0  0  0  0  0
   -2.3900    0.6224    1.2347 H   0  0  0  0  0  0  0  0  0  0  0  0
  1  2  1  0
  1 25  1  0
  1 26  1  0
  2  3  2  0
  2  4  1  0
  4  5  1  6
  4 24  1  0
  4  6  1  0
  6  7  1  0
  6 27  1  6
  6 28  1  0
  7  8  1  0
  7 29  1  6
  7 30  1  0
  8  9  1  0
  8 31  1  6
  8 32  1  0
  9 10  1  0
  9 24  1  0
 10 11  2  0
 10 12  1  0
 12 13  1  0
 12 33  1  6
 12 34  1  0
 13 22  1  0
 13 14  1  0
 14 15  2  0
 14 35  1  0
 15 16  1  0
 15 20  1  0
 16 17  1  1
 16 18  1  0
 16 19  1  0
 20 21  2  0
 20 36  1  0
 21 22  1  0
 21 37  1  0
 22 23  2  0
 24 38  1  1
 24 39  1  0
M  END
$$$$
