ZINC000028207791
     RDKit          3D

 55 55  0  0  1  0  0  0  0  0999 V2000
   -0.0187    1.5258    0.0104 C   0  0  1  0  0  0  0  0  0  0  0  0
    0.0021   -0.0041    0.0020 C   0  0  1  0  0  0  0  0  0  0  0  0
    0.7182   -0.4975   -1.2568 C   0  0  1  0  0  0  0  0  0  0  0  0
    0.7390   -2.0273   -1.2652 C   0  0  2  0  0  0  0  0  0  0  0  0
    1.1870   -2.3897   -0.3400 H   0  0  0  0  0  0  0  0  0  0  0  0
    1.5619   -2.5197   -2.4574 C   0  0  1  0  0  0  0  0  0  0  0  0
   -0.6313   -2.5337   -1.3752 N   0  0  0  0  0  0  0  0  0  0  0  0
   -0.9349   -3.7625   -0.9121 C   0  0  0  0  0  0  0  0  0  0  0  0
   -0.0737   -4.4490   -0.4043 O   0  0  0  0  0  0  0  0  0  0  0  0
   -2.3445   -4.2833   -1.0253 C   0  0  1  0  0  0  0  0  0  0  0  0
   -2.4129   -5.5975   -0.4681 O   0  0  0  0  0  0  0  0  0  0  0  0
   -3.6232   -6.2151   -0.4909 C   0  0  0  0  0  0  0  0  0  0  0  0
   -4.7210   -5.5719   -1.0434 C   0  0  0  0  0  0  0  0  0  0  0  0
   -5.9504   -6.2021   -1.0659 C   0  0  0  0  0  0  0  0  0  0  0  0
   -6.0869   -7.4724   -0.5378 C   0  0  0  0  0  0  0  0  0  0  0  0
   -7.6562   -8.2732   -0.5675 S   0  0  1  0  0  0  0  0  0  0  0  0
   -7.6336   -9.2389    0.4747 O   0  0  0  0  0  0  0  0  0  0  0  0
   -8.6310   -7.2427   -0.6512 O   0  0  0  0  0  0  0  0  0  0  0  0
   -7.7477   -9.1200   -1.9877 N   0  0  0  0  0  0  0  0  0  0  0  0
   -7.2819  -10.5078   -2.0443 C   0  0  1  0  0  0  0  0  0  0  0  0
   -8.4661  -11.4524   -1.8291 C   0  0  1  0  0  0  0  0  0  0  0  0
   -8.2945   -8.4812   -3.1874 C   0  0  1  0  0  0  0  0  0  0  0  0
   -7.1505   -7.9088   -4.0267 C   0  0  1  0  0  0  0  0  0  0  0  0
   -4.9939   -8.1159    0.0131 C   0  0  0  0  0  0  0  0  0  0  0  0
   -3.7617   -7.4923    0.0332 C   0  0  0  0  0  0  0  0  0  0  0  0
   -2.5708   -8.1943    0.6333 C   0  0  1  0  0  0  0  0  0  0  0  0
    1.0039    1.9031    0.0027 H   0  0  0  0  0  0  0  0  0  0  0  0
   -0.5459    1.8868   -0.8726 H   0  0  0  0  0  0  0  0  0  0  0  0
   -0.5289    1.8773    0.9072 H   0  0  0  0  0  0  0  0  0  0  0  0
    0.5293   -0.3651    0.8851 H   0  0  0  0  0  0  0  0  0  0  0  0
   -1.0205   -0.3814    0.0098 H   0  0  0  0  0  0  0  0  0  0  0  0
    0.1910   -0.1364   -2.1398 H   0  0  0  0  0  0  0  0  0  0  0  0
    1.7408   -0.1202   -1.2645 H   0  0  0  0  0  0  0  0  0  0  0  0
    2.5814   -2.1429   -2.3755 H   0  0  0  0  0  0  0  0  0  0  0  0
    1.5766   -3.6095   -2.4634 H   0  0  0  0  0  0  0  0  0  0  0  0
    1.1138   -2.1573   -3.3826 H   0  0  0  0  0  0  0  0  0  0  0  0
   -1.3201   -1.9846   -1.7814 H   0  0  0  0  0  0  0  0  0  0  0  0
   -3.0206   -3.6229   -0.4824 H   0  0  0  0  0  0  0  0  0  0  0  0
   -2.6358   -4.3182   -2.0751 H   0  0  0  0  0  0  0  0  0  0  0  0
   -4.6150   -4.5792   -1.4554 H   0  0  0  0  0  0  0  0  0  0  0  0
   -6.8054   -5.7018   -1.4959 H   0  0  0  0  0  0  0  0  0  0  0  0
   -6.8352  -10.7016   -3.0195 H   0  0  0  0  0  0  0  0  0  0  0  0
   -6.5385  -10.6737   -1.2647 H   0  0  0  0  0  0  0  0  0  0  0  0
   -8.1196  -12.4850   -1.8713 H   0  0  0  0  0  0  0  0  0  0  0  0
   -8.9129  -11.2586   -0.8540 H   0  0  0  0  0  0  0  0  0  0  0  0
   -9.2096  -11.2865   -2.6088 H   0  0  0  0  0  0  0  0  0  0  0  0
   -8.8419   -9.2188   -3.7742 H   0  0  0  0  0  0  0  0  0  0  0  0
   -8.9688   -7.6763   -2.8952 H   0  0  0  0  0  0  0  0  0  0  0  0
   -6.6031   -7.1712   -3.4398 H   0  0  0  0  0  0  0  0  0  0  0  0
   -6.4761   -8.7137   -4.3189 H   0  0  0  0  0  0  0  0  0  0  0  0
   -7.5573   -7.4335   -4.9193 H   0  0  0  0  0  0  0  0  0  0  0  0
   -5.1031   -9.1085    0.4247 H   0  0  0  0  0  0  0  0  0  0  0  0
   -2.0623   -8.7717   -0.1388 H   0  0  0  0  0  0  0  0  0  0  0  0
   -1.8839   -7.4558    1.0465 H   0  0  0  0  0  0  0  0  0  0  0  0
   -2.9051   -8.8633    1.4263 H   0  0  0  0  0  0  0  0  0  0  0  0
  1  2  1  0
  1 27  1  6
  1 28  1  0
  1 29  1  0
  2  3  1  0
  2 30  1  1
  2 31  1  0
  3  4  1  0
  3 32  1  6
  3 33  1  0
  4  5  1  1
  4  6  1  0
  4  7  1  0
  6 34  1  1
  6 35  1  0
  6 36  1  0
  7  8  1  0
  7 37  1  0
  8  9  2  0
  8 10  1  0
 10 11  1  0
 10 38  1  1
 10 39  1  0
 11 12  1  0
 12 25  2  0
 12 13  1  0
 13 14  2  0
 13 40  1  0
 14 15  1  0
 14 41  1  0
 15 16  1  0
 15 24  2  0
 16 17  2  0
 16 18  2  0
 16 19  1  6
 19 20  1  0
 19 22  1  0
 20 21  1  0
 20 42  1  6
 20 43  1  0
 21 44  1  1
 21 45  1  0
 21 46  1  0
 22 23  1  0
 22 47  1  6
 22 48  1  0
 23 49  1  1
 23 50  1  0
 23 51  1  0
 24 25  1  0
 24 52  1  0
 25 26  1  0
 26 53  1  6
 26 54  1  0
 26 55  1  0
M  END
$$$$
