ZINC000408612558
     RDKit          3D

 65 67  0  0  1  0  0  0  0  0999 V2000
   -0.0184    1.5028    0.0103 C   0  0  1  0  0  0  0  0  0  0  0  0
    0.0021   -0.0041    0.0020 C   0  0  0  0  0  0  0  0  0  0  0  0
    0.0057   -0.6887   -1.1989 C   0  0  0  0  0  0  0  0  0  0  0  0
    0.0245   -2.0709   -1.2065 C   0  0  0  0  0  0  0  0  0  0  0  0
    0.0400   -2.7685   -0.0132 C   0  0  0  0  0  0  0  0  0  0  0  0
    0.0633   -4.5303   -0.0229 S   0  0  1  0  0  0  0  0  0  0  0  0
   -0.4690   -4.9455    1.2275 O   0  0  0  0  0  0  0  0  0  0  0  0
   -0.4824   -4.9319   -1.2719 O   0  0  0  0  0  0  0  0  0  0  0  0
    1.6514   -4.9995   -0.0340 N   0  0  0  0  0  0  0  0  0  0  0  0
    2.3607   -5.2139    1.2298 C   0  0  1  0  0  0  0  0  0  0  0  0
    2.3045   -6.6971    1.6009 C   0  0  1  0  0  0  0  0  0  0  0  0
    3.0341   -6.9177    2.9009 C   0  0  0  0  0  0  0  0  0  0  0  0
    4.3868   -7.2026    2.8947 C   0  0  0  0  0  0  0  0  0  0  0  0
    5.0560   -7.4049    4.0872 C   0  0  0  0  0  0  0  0  0  0  0  0
    4.3727   -7.3219    5.2860 C   0  0  0  0  0  0  0  0  0  0  0  0
    3.0203   -7.0361    5.2923 C   0  0  0  0  0  0  0  0  0  0  0  0
    2.3519   -6.8295    4.1000 C   0  0  0  0  0  0  0  0  0  0  0  0
    2.3471   -5.2001   -1.3075 C   0  0  1  0  0  0  0  0  0  0  0  0
    3.0899   -3.9422   -1.6778 C   0  0  0  0  0  0  0  0  0  0  0  0
    3.0428   -2.9735   -0.9496 O   0  0  0  0  0  0  0  0  0  0  0  0
    3.8065   -3.8937   -2.8182 N   0  0  0  0  0  0  0  0  0  0  0  0
    4.5286   -2.6709   -3.1782 C   0  0  2  0  0  0  0  0  0  0  0  0
    4.9050   -2.1919   -2.2744 H   0  0  0  0  0  0  0  0  0  0  0  0
    3.5813   -1.7146   -3.9055 C   0  0  1  0  0  0  0  0  0  0  0  0
    5.7015   -3.0225   -4.0955 C   0  0  1  0  0  0  0  0  0  0  0  0
    6.7113   -3.8776   -3.3271 C   0  0  1  0  0  0  0  0  0  0  0  0
    7.8666   -4.2239   -4.2306 C   0  0  0  0  0  0  0  0  0  0  0  0
    7.8221   -5.3711   -5.0007 C   0  0  0  0  0  0  0  0  0  0  0  0
    8.8819   -5.6888   -5.8294 C   0  0  0  0  0  0  0  0  0  0  0  0
    9.9860   -4.8591   -5.8885 C   0  0  0  0  0  0  0  0  0  0  0  0
   10.0301   -3.7114   -5.1191 C   0  0  0  0  0  0  0  0  0  0  0  0
    8.9685   -3.3915   -4.2936 C   0  0  0  0  0  0  0  0  0  0  0  0
    0.0378   -2.0839    1.1877 C   0  0  0  0  0  0  0  0  0  0  0  0
    0.0229   -0.7016    1.1953 C   0  0  0  0  0  0  0  0  0  0  0  0
    1.0042    1.8801    0.0026 H   0  0  0  0  0  0  0  0  0  0  0  0
   -0.5455    1.8639   -0.8728 H   0  0  0  0  0  0  0  0  0  0  0  0
   -0.5286    1.8543    0.9071 H   0  0  0  0  0  0  0  0  0  0  0  0
   -0.0064   -0.1436   -2.1312 H   0  0  0  0  0  0  0  0  0  0  0  0
    0.0266   -2.6057   -2.1448 H   0  0  0  0  0  0  0  0  0  0  0  0
    3.4005   -4.9060    1.1197 H   0  0  0  0  0  0  0  0  0  0  0  0
    1.8886   -4.6246    2.0159 H   0  0  0  0  0  0  0  0  0  0  0  0
    1.2647   -7.0050    1.7111 H   0  0  0  0  0  0  0  0  0  0  0  0
    2.7766   -7.2865    0.8148 H   0  0  0  0  0  0  0  0  0  0  0  0
    4.9206   -7.2675    1.9581 H   0  0  0  0  0  0  0  0  0  0  0  0
    6.1127   -7.6282    4.0822 H   0  0  0  0  0  0  0  0  0  0  0  0
    4.8955   -7.4807    6.2176 H   0  0  0  0  0  0  0  0  0  0  0  0
    2.4863   -6.9716    6.2288 H   0  0  0  0  0  0  0  0  0  0  0  0
    1.2953   -6.6062    4.1049 H   0  0  0  0  0  0  0  0  0  0  0  0
    3.0540   -6.0240   -1.2095 H   0  0  0  0  0  0  0  0  0  0  0  0
    1.6206   -5.4353   -2.0853 H   0  0  0  0  0  0  0  0  0  0  0  0
    3.8442   -4.6685   -3.4007 H   0  0  0  0  0  0  0  0  0  0  0  0
    3.2048   -2.1937   -4.8093 H   0  0  0  0  0  0  0  0  0  0  0  0
    2.7456   -1.4641   -3.2520 H   0  0  0  0  0  0  0  0  0  0  0  0
    4.1185   -0.8048   -4.1733 H   0  0  0  0  0  0  0  0  0  0  0  0
    5.3345   -3.5801   -4.9571 H   0  0  0  0  0  0  0  0  0  0  0  0
    6.1849   -2.1063   -4.4346 H   0  0  0  0  0  0  0  0  0  0  0  0
    7.0783   -3.3200   -2.4655 H   0  0  0  0  0  0  0  0  0  0  0  0
    6.2279   -4.7938   -2.9880 H   0  0  0  0  0  0  0  0  0  0  0  0
    6.9595   -6.0193   -4.9545 H   0  0  0  0  0  0  0  0  0  0  0  0
    8.8474   -6.5854   -6.4305 H   0  0  0  0  0  0  0  0  0  0  0  0
   10.8143   -5.1077   -6.5354 H   0  0  0  0  0  0  0  0  0  0  0  0
   10.8928   -3.0634   -5.1650 H   0  0  0  0  0  0  0  0  0  0  0  0
    9.0029   -2.4949   -3.6925 H   0  0  0  0  0  0  0  0  0  0  0  0
    0.0503   -2.6289    2.1200 H   0  0  0  0  0  0  0  0  0  0  0  0
    0.0211   -0.1667    2.1335 H   0  0  0  0  0  0  0  0  0  0  0  0
  1  2  1  0
  1 35  1  6
  1 36  1  0
  1 37  1  0
  2 34  2  0
  2  3  1  0
  3  4  2  0
  3 38  1  0
  4  5  1  0
  4 39  1  0
  5  6  1  0
  5 33  2  0
  6  7  2  0
  6  8  2  0
  6  9  1  6
  9 10  1  0
  9 18  1  0
 10 11  1  0
 10 40  1  6
 10 41  1  0
 11 12  1  0
 11 42  1  1
 11 43  1  0
 12 17  2  0
 12 13  1  0
 13 14  2  0
 13 44  1  0
 14 15  1  0
 14 45  1  0
 15 16  2  0
 15 46  1  0
 16 17  1  0
 16 47  1  0
 17 48  1  0
 18 19  1  0
 18 49  1  1
 18 50  1  0
 19 20  2  0
 19 21  1  0
 21 22  1  0
 21 51  1  0
 22 23  1  1
 22 24  1  0
 22 25  1  0
 24 52  1  6
 24 53  1  0
 24 54  1  0
 25 26  1  0
 25 55  1  6
 25 56  1  0
 26 27  1  0
 26 57  1  1
 26 58  1  0
 27 32  2  0
 27 28  1  0
 28 29  2  0
 28 59  1  0
 29 30  1  0
 29 60  1  0
 30 31  2  0
 30 61  1  0
 31 32  1  0
 31 62  1  0
 32 63  1  0
 33 34  1  0
 33 64  1  0
 34 65  1  0
M  END
$$$$
