ZINC000008988248
     RDKit          3D

 52 54  0  0  0  0  0  0  0  0999 V2000
   -0.0173    1.4248    0.0099 C   0  0  1  0  0  0  0  0  0  0  0  0
    0.0021   -0.0041    0.0020 O   0  0  0  0  0  0  0  0  0  0  0  0
    0.6262   -0.6188    1.0422 C   0  0  0  0  0  0  0  0  0  0  0  0
    1.2019    0.1365    2.0506 C   0  0  0  0  0  0  0  0  0  0  0  0
    1.8358   -0.4901    3.1079 C   0  0  0  0  0  0  0  0  0  0  0  0
    1.8971   -1.8698    3.1612 C   0  0  0  0  0  0  0  0  0  0  0  0
    1.3249   -2.6298    2.1575 C   0  0  0  0  0  0  0  0  0  0  0  0
    0.6830   -2.0084    1.0988 C   0  0  0  0  0  0  0  0  0  0  0  0
    0.1197   -2.7543    0.1110 O   0  0  0  0  0  0  0  0  0  0  0  0
    0.2274   -4.1743    0.2286 C   0  0  1  0  0  0  0  0  0  0  0  0
   -0.4498   -4.8287   -0.9479 C   0  0  0  0  0  0  0  0  0  0  0  0
   -0.9731   -4.1461   -1.8030 O   0  0  0  0  0  0  0  0  0  0  0  0
   -0.4740   -6.1724   -1.0499 N   0  0  0  0  0  0  0  0  0  0  0  0
    0.1507   -7.0121   -0.0182 C   0  0  1  0  0  0  0  0  0  0  0  0
   -0.8973   -7.9989    0.5112 C   0  0  1  0  0  0  0  0  0  0  0  0
   -1.5491   -8.6506   -0.6335 N   0  0  0  0  0  0  0  0  0  0  0  0
   -1.5797  -10.3016   -0.7582 S   0  0  1  0  0  0  0  0  0  0  0  0
   -1.7474  -10.5967   -2.1381 O   0  0  0  0  0  0  0  0  0  0  0  0
   -0.4868  -10.7825    0.0121 O   0  0  0  0  0  0  0  0  0  0  0  0
   -3.0423  -10.8588    0.0511 C   0  0  0  0  0  0  0  0  0  0  0  0
   -3.0136  -11.1610    1.3997 C   0  0  0  0  0  0  0  0  0  0  0  0
   -4.1611  -11.5981    2.0346 C   0  0  0  0  0  0  0  0  0  0  0  0
   -5.3373  -11.7327    1.3210 C   0  0  0  0  0  0  0  0  0  0  0  0
   -6.5881  -12.2097    2.0131 C   0  0  1  0  0  0  0  0  0  0  0  0
   -7.2921  -11.1096    2.5145 F   0  0  0  0  0  0  0  0  0  0  0  0
   -7.3917  -12.9008    1.0999 F   0  0  0  0  0  0  0  0  0  0  0  0
   -6.2418  -13.0616    3.0674 F   0  0  0  0  0  0  0  0  0  0  0  0
   -5.3664  -11.4292   -0.0273 C   0  0  0  0  0  0  0  0  0  0  0  0
   -4.2198  -10.9884   -0.6614 C   0  0  0  0  0  0  0  0  0  0  0  0
   -2.1738   -7.8108   -1.6652 C   0  0  1  0  0  0  0  0  0  0  0  0
   -1.1307   -6.8241   -2.1917 C   0  0  1  0  0  0  0  0  0  0  0  0
    1.0053    1.8021    0.0021 H   0  0  0  0  0  0  0  0  0  0  0  0
   -0.5445    1.7859   -0.8732 H   0  0  0  0  0  0  0  0  0  0  0  0
   -0.5275    1.7763    0.9067 H   0  0  0  0  0  0  0  0  0  0  0  0
    1.1560    1.2148    2.0110 H   0  0  0  0  0  0  0  0  0  0  0  0
    2.2843    0.0999    3.8935 H   0  0  0  0  0  0  0  0  0  0  0  0
    2.3934   -2.3556    3.9884 H   0  0  0  0  0  0  0  0  0  0  0  0
    1.3748   -3.7077    2.2012 H   0  0  0  0  0  0  0  0  0  0  0  0
    1.2795   -4.4587    0.2466 H   0  0  0  0  0  0  0  0  0  0  0  0
   -0.2528   -4.4999    1.1514 H   0  0  0  0  0  0  0  0  0  0  0  0
    0.9859   -7.5627   -0.4510 H   0  0  0  0  0  0  0  0  0  0  0  0
    0.5071   -6.3841    0.7983 H   0  0  0  0  0  0  0  0  0  0  0  0
   -0.4107   -8.7512    1.1320 H   0  0  0  0  0  0  0  0  0  0  0  0
   -1.6416   -7.4617    1.0989 H   0  0  0  0  0  0  0  0  0  0  0  0
   -2.0946  -11.0559    1.9572 H   0  0  0  0  0  0  0  0  0  0  0  0
   -4.1385  -11.8349    3.0881 H   0  0  0  0  0  0  0  0  0  0  0  0
   -6.2855  -11.5339   -0.5847 H   0  0  0  0  0  0  0  0  0  0  0  0
   -4.2425  -10.7512   -1.7148 H   0  0  0  0  0  0  0  0  0  0  0  0
   -2.5302   -8.4388   -2.4817 H   0  0  0  0  0  0  0  0  0  0  0  0
   -3.0090   -7.2602   -1.2324 H   0  0  0  0  0  0  0  0  0  0  0  0
   -1.6186   -6.0726   -2.8124 H   0  0  0  0  0  0  0  0  0  0  0  0
   -0.3848   -7.3593   -2.7793 H   0  0  0  0  0  0  0  0  0  0  0  0
  1  2  1  0
  1 32  1  6
  1 33  1  0
  1 34  1  0
  2  3  1  0
  3  8  2  0
  3  4  1  0
  4  5  2  0
  4 35  1  0
  5  6  1  0
  5 36  1  0
  6  7  2  0
  6 37  1  0
  7  8  1  0
  7 38  1  0
  8  9  1  0
  9 10  1  0
 10 11  1  0
 10 39  1  1
 10 40  1  0
 11 12  2  0
 11 13  1  0
 13 31  1  0
 13 14  1  0
 14 15  1  0
 14 41  1  6
 14 42  1  0
 15 16  1  0
 15 43  1  1
 15 44  1  0
 17 16  1  6
 16 30  1  0
 17 18  2  0
 17 19  2  0
 17 20  1  0
 20 29  2  0
 20 21  1  0
 21 22  2  0
 21 45  1  0
 22 23  1  0
 22 46  1  0
 23 24  1  0
 23 28  2  0
 24 25  1  1
 24 26  1  0
 24 27  1  0
 28 29  1  0
 28 47  1  0
 29 48  1  0
 30 31  1  0
 30 49  1  6
 30 50  1  0
 31 51  1  6
 31 52  1  0
M  END
$$$$
