ZINC000095432518
     RDKit          3D

 61 63  0  0  1  0  0  0  0  0999 V2000
   -0.2590    1.8909    0.3403 C   0  0  1  0  0  0  0  0  0  0  0  0
    0.1469    0.4246    0.5017 C   0  0  1  0  0  0  0  0  0  0  0  0
    1.0915    0.0600   -0.5571 N   0  0  0  0  0  0  0  0  0  0  0  0
    2.5216    0.3286   -0.3873 C   0  0  1  0  0  0  0  0  0  0  0  0
    3.1688   -0.8231    0.3844 C   0  0  1  0  0  0  0  0  0  0  0  0
    0.5426   -0.6558   -1.9459 S   0  0  1  0  0  0  0  0  0  0  0  0
    1.6444   -1.3670   -2.4932 O   0  0  0  0  0  0  0  0  0  0  0  0
   -0.6947   -1.2725   -1.6174 O   0  0  0  0  0  0  0  0  0  0  0  0
    0.1683    0.6351   -3.0852 C   0  0  0  0  0  0  0  0  0  0  0  0
   -1.0979    1.1894   -3.1074 C   0  0  0  0  0  0  0  0  0  0  0  0
   -1.3976    2.2028   -3.9993 C   0  0  0  0  0  0  0  0  0  0  0  0
   -0.4281    2.6653   -4.8738 C   0  0  0  0  0  0  0  0  0  0  0  0
   -0.7212    3.6620   -5.7511 O   0  0  0  0  0  0  0  0  0  0  0  0
   -2.0100    4.2686   -5.6369 C   0  0  1  0  0  0  0  0  0  0  0  0
   -1.9622    5.6815   -6.2219 C   0  0  1  0  0  0  0  0  0  0  0  0
   -3.0366    3.4333   -6.4044 C   0  0  1  0  0  0  0  0  0  0  0  0
    0.8483    2.1070   -4.8520 C   0  0  0  0  0  0  0  0  0  0  0  0
    1.8332    2.5711   -5.7340 N   0  0  0  0  0  0  0  0  0  0  0  0
    2.8492    1.7627   -6.0955 C   0  0  0  0  0  0  0  0  0  0  0  0
    2.9308    0.6458   -5.6295 O   0  0  0  0  0  0  0  0  0  0  0  0
    3.8837    2.2463   -7.0788 C   0  0  1  0  0  0  0  0  0  0  0  0
    4.2347    3.2333   -6.7773 H   0  0  0  0  0  0  0  0  0  0  0  0
    4.9840    1.3373   -7.0926 O   0  0  0  0  0  0  0  0  0  0  0  0
    5.9327    1.6174   -8.1281 C   0  0  1  0  0  0  0  0  0  0  0  0
    5.2990    1.2648   -9.4750 C   0  0  1  0  0  0  0  0  0  0  0  0
    3.9285    1.8852   -9.5712 C   0  0  0  0  0  0  0  0  0  0  0  0
    3.3333    1.9971  -10.8174 C   0  0  0  0  0  0  0  0  0  0  0  0
    2.0765    2.5564  -10.9410 C   0  0  0  0  0  0  0  0  0  0  0  0
    1.4096    3.0058   -9.8168 C   0  0  0  0  0  0  0  0  0  0  0  0
    2.0029    2.8962   -8.5747 C   0  0  0  0  0  0  0  0  0  0  0  0
    3.2662    2.3338   -8.4502 C   0  0  0  0  0  0  0  0  0  0  0  0
    1.1431    1.0949   -3.9508 C   0  0  0  0  0  0  0  0  0  0  0  0
    0.6264    2.5228    0.4098 H   0  0  0  0  0  0  0  0  0  0  0  0
   -0.7308    2.0324   -0.6321 H   0  0  0  0  0  0  0  0  0  0  0  0
   -0.9618    2.1622    1.1281 H   0  0  0  0  0  0  0  0  0  0  0  0
    0.6188    0.2832    1.4741 H   0  0  0  0  0  0  0  0  0  0  0  0
   -0.7385   -0.2073    0.4322 H   0  0  0  0  0  0  0  0  0  0  0  0
    2.9928    0.4203   -1.3659 H   0  0  0  0  0  0  0  0  0  0  0  0
    2.6535    1.2574    0.1678 H   0  0  0  0  0  0  0  0  0  0  0  0
    4.2328   -0.6232    0.5108 H   0  0  0  0  0  0  0  0  0  0  0  0
    2.6976   -0.9147    1.3631 H   0  0  0  0  0  0  0  0  0  0  0  0
    3.0369   -1.7518   -0.1707 H   0  0  0  0  0  0  0  0  0  0  0  0
   -1.8552    0.8298   -2.4265 H   0  0  0  0  0  0  0  0  0  0  0  0
   -2.3879    2.6335   -4.0143 H   0  0  0  0  0  0  0  0  0  0  0  0
   -2.2956    4.3198   -4.5862 H   0  0  0  0  0  0  0  0  0  0  0  0
   -1.6766    5.6303   -7.2725 H   0  0  0  0  0  0  0  0  0  0  0  0
   -2.9453    6.1443   -6.1348 H   0  0  0  0  0  0  0  0  0  0  0  0
   -1.2308    6.2766   -5.6751 H   0  0  0  0  0  0  0  0  0  0  0  0
   -3.0707    2.4267   -5.9877 H   0  0  0  0  0  0  0  0  0  0  0  0
   -4.0197    3.8960   -6.3173 H   0  0  0  0  0  0  0  0  0  0  0  0
   -2.7510    3.3821   -7.4551 H   0  0  0  0  0  0  0  0  0  0  0  0
    1.7839    3.4743   -6.0844 H   0  0  0  0  0  0  0  0  0  0  0  0
    6.1916    2.6761   -8.1111 H   0  0  0  0  0  0  0  0  0  0  0  0
    6.8289    1.0158   -7.9763 H   0  0  0  0  0  0  0  0  0  0  0  0
    5.9263    1.6448  -10.2813 H   0  0  0  0  0  0  0  0  0  0  0  0
    5.2136    0.1817   -9.5630 H   0  0  0  0  0  0  0  0  0  0  0  0
    3.8543    1.6458  -11.6957 H   0  0  0  0  0  0  0  0  0  0  0  0
    1.6160    2.6427  -11.9141 H   0  0  0  0  0  0  0  0  0  0  0  0
    0.4261    3.4423   -9.9098 H   0  0  0  0  0  0  0  0  0  0  0  0
    1.4812    3.2478   -7.6968 H   0  0  0  0  0  0  0  0  0  0  0  0
    2.1316    0.6603   -3.9311 H   0  0  0  0  0  0  0  0  0  0  0  0
  1  2  1  0
  1 33  1  6
  1 34  1  0
  1 35  1  0
  2  3  1  0
  2 36  1  1
  2 37  1  0
  3  4  1  0
  6  3  1  1
  4  5  1  0
  4 38  1  6
  4 39  1  0
  5 40  1  1
  5 41  1  0
  5 42  1  0
  6  7  2  0
  6  8  2  0
  6  9  1  0
  9 32  2  0
  9 10  1  0
 10 11  2  0
 10 43  1  0
 11 12  1  0
 11 44  1  0
 12 13  1  0
 12 17  2  0
 13 14  1  0
 14 15  1  0
 14 16  1  0
 14 45  1  1
 15 46  1  6
 15 47  1  0
 15 48  1  0
 16 49  1  1
 16 50  1  0
 16 51  1  0
 17 18  1  0
 17 32  1  0
 18 19  1  0
 18 52  1  0
 19 20  2  0
 19 21  1  0
 21 22  1  1
 21 31  1  0
 21 23  1  0
 23 24  1  0
 24 25  1  0
 24 53  1  6
 24 54  1  0
 25 26  1  0
 25 55  1  6
 25 56  1  0
 26 31  2  0
 26 27  1  0
 27 28  2  0
 27 57  1  0
 28 29  1  0
 28 58  1  0
 29 30  2  0
 29 59  1  0
 30 31  1  0
 30 60  1  0
 32 61  1  0
M  END
$$$$
