ZINC000408561897
     RDKit          3D

 56 58  0  0  1  0  0  0  0  0999 V2000
    1.6176    0.9988   -1.8852 C   0  0  1  0  0  0  0  0  0  0  0  0
    0.9994   -0.3400   -1.5745 C   0  0  0  0  0  0  0  0  0  0  0  0
    0.8145   -0.7278   -0.2606 C   0  0  0  0  0  0  0  0  0  0  0  0
    0.2474   -1.9558    0.0243 C   0  0  0  0  0  0  0  0  0  0  0  0
    0.0462   -2.3788    1.4567 C   0  0  1  0  0  0  0  0  0  0  0  0
   -0.1356   -2.7958   -1.0046 C   0  0  0  0  0  0  0  0  0  0  0  0
   -0.8590   -4.3608   -0.6414 S   0  0  1  0  0  0  0  0  0  0  0  0
   -1.4071   -4.2560    0.6654 O   0  0  0  0  0  0  0  0  0  0  0  0
   -1.6285   -4.7212   -1.7804 O   0  0  0  0  0  0  0  0  0  0  0  0
    0.3753   -5.4606   -0.5440 N   0  0  0  0  0  0  0  0  0  0  0  0
    0.8254   -6.1885   -1.7382 C   0  0  1  0  0  0  0  0  0  0  0  0
    0.7943   -7.6910   -1.4407 C   0  0  1  0  0  0  0  0  0  0  0  0
    1.6192   -7.9751   -0.1834 C   0  0  1  0  0  0  0  0  0  0  0  0
    1.0080   -7.2341    1.0080 C   0  0  1  0  0  0  0  0  0  0  0  0
   -0.0241   -7.5561    1.1462 H   0  0  0  0  0  0  0  0  0  0  0  0
    1.8014   -7.5409    2.2520 C   0  0  0  0  0  0  0  0  0  0  0  0
    2.3389   -6.6431    2.8653 O   0  0  0  0  0  0  0  0  0  0  0  0
    1.9136   -8.8129    2.6830 N   0  0  0  0  0  0  0  0  0  0  0  0
    2.5718   -9.0882    3.8867 C   0  0  0  0  0  0  0  0  0  0  0  0
    3.2999  -10.2622    4.0290 C   0  0  0  0  0  0  0  0  0  0  0  0
    3.9484  -10.5311    5.2184 C   0  0  0  0  0  0  0  0  0  0  0  0
    3.8730   -9.6329    6.2671 C   0  0  0  0  0  0  0  0  0  0  0  0
    4.5814   -9.9297    7.5637 C   0  0  1  0  0  0  0  0  0  0  0  0
    5.8784   -9.4075    7.5165 F   0  0  0  0  0  0  0  0  0  0  0  0
    3.8807   -9.3429    8.6229 F   0  0  0  0  0  0  0  0  0  0  0  0
    4.6428  -11.3141    7.7553 F   0  0  0  0  0  0  0  0  0  0  0  0
    3.1492   -8.4628    6.1285 C   0  0  0  0  0  0  0  0  0  0  0  0
    2.5032   -8.1854    4.9397 C   0  0  0  0  0  0  0  0  0  0  0  0
    1.0452   -5.7223    0.7372 C   0  0  1  0  0  0  0  0  0  0  0  0
    0.0485   -2.4076   -2.3186 C   0  0  0  0  0  0  0  0  0  0  0  0
   -0.3695   -3.3230   -3.4403 C   0  0  1  0  0  0  0  0  0  0  0  0
    0.6120   -1.1779   -2.6035 C   0  0  0  0  0  0  0  0  0  0  0  0
    0.8337    1.7524   -1.9597 H   0  0  0  0  0  0  0  0  0  0  0  0
    2.3103    1.2725   -1.0894 H   0  0  0  0  0  0  0  0  0  0  0  0
    2.1560    0.9397   -2.8311 H   0  0  0  0  0  0  0  0  0  0  0  0
    1.1134   -0.0714    0.5433 H   0  0  0  0  0  0  0  0  0  0  0  0
   -0.9744   -2.1498    1.7633 H   0  0  0  0  0  0  0  0  0  0  0  0
    0.2208   -3.4509    1.5469 H   0  0  0  0  0  0  0  0  0  0  0  0
    0.7468   -1.8415    2.0960 H   0  0  0  0  0  0  0  0  0  0  0  0
    0.1604   -5.9675   -2.5731 H   0  0  0  0  0  0  0  0  0  0  0  0
    1.8423   -5.8866   -1.9886 H   0  0  0  0  0  0  0  0  0  0  0  0
   -0.2359   -8.0087   -1.2795 H   0  0  0  0  0  0  0  0  0  0  0  0
    1.2164   -8.2376   -2.2840 H   0  0  0  0  0  0  0  0  0  0  0  0
    1.6190   -9.0466    0.0166 H   0  0  0  0  0  0  0  0  0  0  0  0
    2.6433   -7.6346   -0.3363 H   0  0  0  0  0  0  0  0  0  0  0  0
    1.5381   -9.5376    2.1588 H   0  0  0  0  0  0  0  0  0  0  0  0
    3.3586  -10.9645    3.2105 H   0  0  0  0  0  0  0  0  0  0  0  0
    4.5147  -11.4439    5.3296 H   0  0  0  0  0  0  0  0  0  0  0  0
    3.0922   -7.7633    6.9494 H   0  0  0  0  0  0  0  0  0  0  0  0
    1.9381   -7.2713    4.8320 H   0  0  0  0  0  0  0  0  0  0  0  0
    2.0807   -5.3850    0.6898 H   0  0  0  0  0  0  0  0  0  0  0  0
    0.5231   -5.1951    1.5356 H   0  0  0  0  0  0  0  0  0  0  0  0
   -1.4336   -3.1931   -3.6379 H   0  0  0  0  0  0  0  0  0  0  0  0
    0.1990   -3.0806   -4.3381 H   0  0  0  0  0  0  0  0  0  0  0  0
   -0.1764   -4.3575   -3.1562 H   0  0  0  0  0  0  0  0  0  0  0  0
    0.7558   -0.8747   -3.6300 H   0  0  0  0  0  0  0  0  0  0  0  0
  1  2  1  0
  1 33  1  6
  1 34  1  0
  1 35  1  0
  2 32  2  0
  2  3  1  0
  3  4  2  0
  3 36  1  0
  4  5  1  0
  4  6  1  0
  5 37  1  1
  5 38  1  0
  5 39  1  0
  6  7  1  0
  6 30  2  0
  7  8  2  0
  7  9  2  0
  7 10  1  1
 10 29  1  0
 10 11  1  0
 11 12  1  0
 11 40  1  6
 11 41  1  0
 12 13  1  0
 12 42  1  1
 12 43  1  0
 13 14  1  0
 13 44  1  1
 13 45  1  0
 14 15  1  1
 14 16  1  0
 14 29  1  0
 16 17  2  0
 16 18  1  0
 18 19  1  0
 18 46  1  0
 19 28  2  0
 19 20  1  0
 20 21  2  0
 20 47  1  0
 21 22  1  0
 21 48  1  0
 22 23  1  0
 22 27  2  0
 23 24  1  6
 23 25  1  0
 23 26  1  0
 27 28  1  0
 27 49  1  0
 28 50  1  0
 29 51  1  6
 29 52  1  0
 30 31  1  0
 30 32  1  0
 31 53  1  6
 31 54  1  0
 31 55  1  0
 32 56  1  0
M  END
$$$$
