ZINC000018077951
     RDKit          3D

 49 50  0  0  0  0  0  0  0  0999 V2000
   -0.0634    1.5414    0.0235 C   0  0  1  0  0  0  0  0  0  0  0  0
   -0.0445    0.0115    0.0193 C   0  0  1  0  0  0  0  0  0  0  0  0
    0.6486   -0.4650   -1.1802 N   0  0  0  0  0  0  0  0  0  0  0  0
    2.1085   -0.5869   -1.1828 C   0  0  1  0  0  0  0  0  0  0  0  0
    2.5084   -1.9406   -0.5925 C   0  0  1  0  0  0  0  0  0  0  0  0
   -0.2182   -0.8659   -2.5330 S   0  0  1  0  0  0  0  0  0  0  0  0
    0.5897   -1.7701   -3.2739 O   0  0  0  0  0  0  0  0  0  0  0  0
   -1.5311   -1.1807   -2.0897 O   0  0  0  0  0  0  0  0  0  0  0  0
   -0.3600    0.5919   -3.5126 C   0  0  0  0  0  0  0  0  0  0  0  0
   -1.4284    1.4489   -3.3258 C   0  0  0  0  0  0  0  0  0  0  0  0
   -1.5396    2.5926   -4.0942 C   0  0  0  0  0  0  0  0  0  0  0  0
   -0.5822    2.8794   -5.0492 C   0  0  0  0  0  0  0  0  0  0  0  0
   -0.7038    4.1259   -5.8873 C   0  0  1  0  0  0  0  0  0  0  0  0
    0.0147    5.2822   -5.1889 C   0  0  1  0  0  0  0  0  0  0  0  0
   -0.1069    6.5287   -6.0270 C   0  0  0  0  0  0  0  0  0  0  0  0
   -0.7089    6.4956   -7.0794 O   0  0  0  0  0  0  0  0  0  0  0  0
    0.4534    7.6803   -5.6071 N   0  0  0  0  0  0  0  0  0  0  0  0
    0.4246    8.8128   -6.4288 C   0  0  0  0  0  0  0  0  0  0  0  0
    1.4978    9.6942   -6.4365 C   0  0  0  0  0  0  0  0  0  0  0  0
    1.4666   10.8110   -7.2484 C   0  0  0  0  0  0  0  0  0  0  0  0
    0.3675   11.0523   -8.0530 C   0  0  0  0  0  0  0  0  0  0  0  0
    0.3241   12.7480   -9.2825 I   0  0  0  0  0  0  0  0  0  0  0  0
   -0.7027   10.1759   -8.0477 C   0  0  0  0  0  0  0  0  0  0  0  0
   -0.6747    9.0544   -7.2422 C   0  0  0  0  0  0  0  0  0  0  0  0
    0.4869    2.0231   -5.2351 C   0  0  0  0  0  0  0  0  0  0  0  0
    0.6002    0.8814   -4.4640 C   0  0  0  0  0  0  0  0  0  0  0  0
    0.9597    1.9174    0.0216 H   0  0  0  0  0  0  0  0  0  0  0  0
   -0.5843    1.9007   -0.8640 H   0  0  0  0  0  0  0  0  0  0  0  0
   -0.5791    1.8959    0.9160 H   0  0  0  0  0  0  0  0  0  0  0  0
    0.4764   -0.3479    0.9068 H   0  0  0  0  0  0  0  0  0  0  0  0
   -1.0676   -0.3645    0.0213 H   0  0  0  0  0  0  0  0  0  0  0  0
    2.4774   -0.5134   -2.2059 H   0  0  0  0  0  0  0  0  0  0  0  0
    2.5410    0.2134   -0.5823 H   0  0  0  0  0  0  0  0  0  0  0  0
    2.1395   -2.0141    0.4306 H   0  0  0  0  0  0  0  0  0  0  0  0
    2.0759   -2.7409   -1.1930 H   0  0  0  0  0  0  0  0  0  0  0  0
    3.5946   -2.0313   -0.5945 H   0  0  0  0  0  0  0  0  0  0  0  0
   -2.1764    1.2248   -2.5796 H   0  0  0  0  0  0  0  0  0  0  0  0
   -2.3747    3.2618   -3.9487 H   0  0  0  0  0  0  0  0  0  0  0  0
   -0.2505    3.9531   -6.8634 H   0  0  0  0  0  0  0  0  0  0  0  0
   -1.7569    4.3767   -6.0150 H   0  0  0  0  0  0  0  0  0  0  0  0
   -0.4386    5.4550   -4.2128 H   0  0  0  0  0  0  0  0  0  0  0  0
    1.0677    5.0315   -5.0612 H   0  0  0  0  0  0  0  0  0  0  0  0
    0.8766    7.7242   -4.7354 H   0  0  0  0  0  0  0  0  0  0  0  0
    2.3558    9.5066   -5.8080 H   0  0  0  0  0  0  0  0  0  0  0  0
    2.3009   11.4967   -7.2548 H   0  0  0  0  0  0  0  0  0  0  0  0
   -1.5595   10.3668   -8.6770 H   0  0  0  0  0  0  0  0  0  0  0  0
   -1.5105    8.3705   -7.2385 H   0  0  0  0  0  0  0  0  0  0  0  0
    1.2351    2.2474   -5.9810 H   0  0  0  0  0  0  0  0  0  0  0  0
    1.4354    0.2123   -4.6092 H   0  0  0  0  0  0  0  0  0  0  0  0
  1  2  1  0
  1 27  1  1
  1 28  1  0
  1 29  1  0
  2  3  1  0
  2 30  1  1
  2 31  1  0
  3  4  1  0
  6  3  1  1
  4  5  1  0
  4 32  1  6
  4 33  1  0
  5 34  1  1
  5 35  1  0
  5 36  1  0
  6  7  2  0
  6  8  2  0
  6  9  1  0
  9 26  2  0
  9 10  1  0
 10 11  2  0
 10 37  1  0
 11 12  1  0
 11 38  1  0
 12 13  1  0
 12 25  2  0
 13 14  1  0
 13 39  1  6
 13 40  1  0
 14 15  1  0
 14 41  1  1
 14 42  1  0
 15 16  2  0
 15 17  1  0
 17 18  1  0
 17 43  1  0
 18 24  2  0
 18 19  1  0
 19 20  2  0
 19 44  1  0
 20 21  1  0
 20 45  1  0
 21 22  1  0
 21 23  2  0
 23 24  1  0
 23 46  1  0
 24 47  1  0
 25 26  1  0
 25 48  1  0
 26 49  1  0
M  END
$$$$
