ZINC000000464363
     RDKit          3D

 39 40  0  0  1  0  0  0  0  0999 V2000
   -0.0187    1.5258    0.0104 C   0  0  1  0  0  0  0  0  0  0  0  0
    0.0021   -0.0041    0.0020 C   0  0  1  0  0  0  0  0  0  0  0  0
   -1.0203   -0.3818    0.0098 H   0  0  0  0  0  0  0  0  0  0  0  0
    0.7197   -0.4983   -1.2561 C   0  0  1  0  0  0  0  0  0  0  0  0
    2.1447    0.0591   -1.2848 C   0  0  2  0  0  0  0  0  0  0  0  0
    2.1098    1.1484   -1.2667 H   0  0  0  0  0  0  0  0  0  0  0  0
    2.8502   -0.4081   -2.5595 C   0  0  1  0  0  0  0  0  0  0  0  0
    2.9119   -0.4483   -0.0597 C   0  0  1  0  0  0  0  0  0  0  0  0
    2.1531   -0.1028    1.1500 N   0  0  0  0  0  0  0  0  0  0  0  0
    2.8710    0.7328    2.3864 S   0  0  1  0  0  0  0  0  0  0  0  0
    2.1258    0.4336    3.5587 O   0  0  0  0  0  0  0  0  0  0  0  0
    4.2677    0.4971    2.2721 O   0  0  0  0  0  0  0  0  0  0  0  0
    2.6281    2.4484    2.0667 C   0  0  0  0  0  0  0  0  0  0  0  0
    3.5557    3.1504    1.3204 C   0  0  0  0  0  0  0  0  0  0  0  0
    3.3651    4.4966    1.0695 C   0  0  0  0  0  0  0  0  0  0  0  0
    2.2467    5.1402    1.5647 C   0  0  0  0  0  0  0  0  0  0  0  0
    1.3183    4.4378    2.3105 C   0  0  0  0  0  0  0  0  0  0  0  0
    0.0991    5.1397    2.8508 C   0  0  1  0  0  0  0  0  0  0  0  0
    0.1284    6.4854    2.4694 F   0  0  0  0  0  0  0  0  0  0  0  0
   -1.0531    4.5346    2.3376 F   0  0  0  0  0  0  0  0  0  0  0  0
    0.0902    5.0508    4.2469 F   0  0  0  0  0  0  0  0  0  0  0  0
    1.5067    3.0911    2.5576 C   0  0  0  0  0  0  0  0  0  0  0  0
    0.7443   -0.5122    1.2421 C   0  0  1  0  0  0  0  0  0  0  0  0
    1.0039    1.9031    0.0027 H   0  0  0  0  0  0  0  0  0  0  0  0
   -0.5459    1.8868   -0.8726 H   0  0  0  0  0  0  0  0  0  0  0  0
   -0.5289    1.8773    0.9072 H   0  0  0  0  0  0  0  0  0  0  0  0
    0.7559   -1.5876   -1.2493 H   0  0  0  0  0  0  0  0  0  0  0  0
    0.1791   -0.1587   -2.1396 H   0  0  0  0  0  0  0  0  0  0  0  0
    2.3022   -0.0488   -3.4306 H   0  0  0  0  0  0  0  0  0  0  0  0
    3.8651   -0.0109   -2.5795 H   0  0  0  0  0  0  0  0  0  0  0  0
    2.8860   -1.4974   -2.5766 H   0  0  0  0  0  0  0  0  0  0  0  0
    3.0263   -1.5305   -0.1227 H   0  0  0  0  0  0  0  0  0  0  0  0
    3.8938    0.0234   -0.0223 H   0  0  0  0  0  0  0  0  0  0  0  0
    4.4296    2.6474    0.9335 H   0  0  0  0  0  0  0  0  0  0  0  0
    4.0903    5.0453    0.4870 H   0  0  0  0  0  0  0  0  0  0  0  0
    2.0981    6.1920    1.3693 H   0  0  0  0  0  0  0  0  0  0  0  0
    0.7815    2.5423    3.1402 H   0  0  0  0  0  0  0  0  0  0  0  0
    0.2967   -0.0824    2.1382 H   0  0  0  0  0  0  0  0  0  0  0  0
    0.6819   -1.5995    1.2854 H   0  0  0  0  0  0  0  0  0  0  0  0
  1  2  1  0
  1 24  1  6
  1 25  1  0
  1 26  1  0
  2  3  1  1
  2 23  1  0
  2  4  1  0
  4  5  1  0
  4 27  1  1
  4 28  1  0
  5  6  1  6
  5  7  1  0
  5  8  1  0
  7 29  1  6
  7 30  1  0
  7 31  1  0
  8  9  1  0
  8 32  1  6
  8 33  1  0
 10  9  1  6
  9 23  1  0
 10 11  2  0
 10 12  2  0
 10 13  1  0
 13 22  2  0
 13 14  1  0
 14 15  2  0
 14 34  1  0
 15 16  1  0
 15 35  1  0
 16 17  2  0
 16 36  1  0
 17 18  1  0
 17 22  1  0
 18 19  1  1
 18 20  1  0
 18 21  1  0
 22 37  1  0
 23 38  1  1
 23 39  1  0
M  END
$$$$
