ZINC000065385090
     RDKit          3D

 43 44  0  0  1  0  0  0  0  0999 V2000
    0.4822   -0.1646    1.5147 C   0  0  1  0  0  0  0  0  0  0  0  0
    0.0073   -0.0349    0.1307 N   0  0  0  0  0  0  0  0  0  0  0  0
    0.9746   -0.6095   -0.8138 C   0  0  1  0  0  0  0  0  0  0  0  0
   -1.3165   -0.6508   -0.0315 C   0  0  1  0  0  0  0  0  0  0  0  0
   -1.2604   -1.7071    0.2315 H   0  0  0  0  0  0  0  0  0  0  0  0
   -2.3059    0.0399    0.8713 C   0  0  0  0  0  0  0  0  0  0  0  0
   -2.1327    1.1978    1.1875 O   0  0  0  0  0  0  0  0  0  0  0  0
   -3.3832   -0.6293    1.3274 N   0  0  0  0  0  0  0  0  0  0  0  0
   -4.3451    0.0421    2.2051 C   0  0  1  0  0  0  0  0  0  0  0  0
   -5.4646   -0.9329    2.5753 C   0  0  1  0  0  0  0  0  0  0  0  0
   -6.4264   -0.2615    3.4530 N   0  0  0  0  0  0  0  0  0  0  0  0
   -6.3564   -0.2214    4.9213 C   0  0  1  0  0  0  0  0  0  0  0  0
   -7.5947    0.6010    5.3277 C   0  0  1  0  0  0  0  0  0  0  0  0
   -8.2310    0.9369    4.0452 N   0  0  0  0  0  0  0  0  0  0  0  0
   -7.5062    0.4183    3.0452 C   0  0  0  0  0  0  0  0  0  0  0  0
   -7.8062    0.5453    1.8738 O   0  0  0  0  0  0  0  0  0  0  0  0
   -1.7625   -0.5128   -1.4644 C   0  0  0  0  0  0  0  0  0  0  0  0
   -1.6303    0.6993   -2.1154 C   0  0  0  0  0  0  0  0  0  0  0  0
   -2.0392    0.8273   -3.4300 C   0  0  0  0  0  0  0  0  0  0  0  0
   -2.5804   -0.2565   -4.0945 C   0  0  0  0  0  0  0  0  0  0  0  0
   -2.7129   -1.4715   -3.4434 C   0  0  0  0  0  0  0  0  0  0  0  0
   -3.2420   -2.5320   -4.0921 F   0  0  0  0  0  0  0  0  0  0  0  0
   -2.2984   -1.6000   -2.1288 C   0  0  0  0  0  0  0  0  0  0  0  0
    1.4677    0.2924    1.6050 H   0  0  0  0  0  0  0  0  0  0  0  0
   -0.2141    0.3376    2.1864 H   0  0  0  0  0  0  0  0  0  0  0  0
    0.5455   -1.2200    1.7798 H   0  0  0  0  0  0  0  0  0  0  0  0
    1.1162   -1.6670   -0.5905 H   0  0  0  0  0  0  0  0  0  0  0  0
    0.5982   -0.5002   -1.8309 H   0  0  0  0  0  0  0  0  0  0  0  0
    1.9271   -0.0878   -0.7208 H   0  0  0  0  0  0  0  0  0  0  0  0
   -3.5218   -1.5555    1.0745 H   0  0  0  0  0  0  0  0  0  0  0  0
   -3.8391    0.3753    3.1112 H   0  0  0  0  0  0  0  0  0  0  0  0
   -4.7692    0.9030    1.6882 H   0  0  0  0  0  0  0  0  0  0  0  0
   -5.9706   -1.2661    1.6692 H   0  0  0  0  0  0  0  0  0  0  0  0
   -5.0405   -1.7938    3.0921 H   0  0  0  0  0  0  0  0  0  0  0  0
   -6.4133   -1.2283    5.3347 H   0  0  0  0  0  0  0  0  0  0  0  0
   -5.4430    0.2761    5.2473 H   0  0  0  0  0  0  0  0  0  0  0  0
   -8.2665    0.0023    5.9428 H   0  0  0  0  0  0  0  0  0  0  0  0
   -7.2961    1.5067    5.8555 H   0  0  0  0  0  0  0  0  0  0  0  0
   -9.0441    1.4552    3.9399 H   0  0  0  0  0  0  0  0  0  0  0  0
   -1.2077    1.5471   -1.5967 H   0  0  0  0  0  0  0  0  0  0  0  0
   -1.9357    1.7750   -3.9376 H   0  0  0  0  0  0  0  0  0  0  0  0
   -2.9003   -0.1561   -5.1211 H   0  0  0  0  0  0  0  0  0  0  0  0
   -2.4009   -2.5472   -1.6201 H   0  0  0  0  0  0  0  0  0  0  0  0
  1  2  1  0
  1 24  1  6
  1 25  1  0
  1 26  1  0
  2  3  1  0
  2  4  1  0
  3 27  1  1
  3 28  1  0
  3 29  1  0
  4  5  1  1
  4  6  1  0
  4 17  1  0
  6  7  2  0
  6  8  1  0
  8  9  1  0
  8 30  1  0
  9 10  1  0
  9 31  1  1
  9 32  1  0
 10 11  1  0
 10 33  1  6
 10 34  1  0
 11 15  1  0
 11 12  1  0
 12 13  1  0
 12 35  1  1
 12 36  1  0
 13 14  1  0
 13 37  1  1
 13 38  1  0
 14 15  1  0
 14 39  1  0
 15 16  2  0
 17 23  2  0
 17 18  1  0
 18 19  2  0
 18 40  1  0
 19 20  1  0
 19 41  1  0
 20 21  2  0
 20 42  1  0
 21 22  1  0
 21 23  1  0
 23 43  1  0
M  END
$$$$
