ZINC000074841476
     RDKit          3D

 41 42  0  0  0  0  0  0  0  0999 V2000
   -0.0187    1.5258    0.0104 C   0  0  1  0  0  0  0  0  0  0  0  0
    0.0021   -0.0041    0.0020 C   0  0  1  0  0  0  0  0  0  0  0  0
    0.7074   -0.4901   -1.2379 C   0  0  0  0  0  0  0  0  0  0  0  0
    2.0155   -0.7388   -1.3518 C   0  0  0  0  0  0  0  0  0  0  0  0
    2.3906   -1.1564   -2.5441 N   0  0  0  0  0  0  0  0  0  0  0  0
    1.4718   -1.2737   -3.4423 C   0  0  0  0  0  0  0  0  0  0  0  0
    1.7035   -1.7345   -4.8582 C   0  0  1  0  0  0  0  0  0  0  0  0
    1.5583   -3.2559   -4.9297 C   0  0  1  0  0  0  0  0  0  0  0  0
    1.7835   -3.7039   -6.3062 N   0  0  0  0  0  0  0  0  0  0  0  0
    1.7062   -5.0148   -6.6094 C   0  0  0  0  0  0  0  0  0  0  0  0
    1.4495   -5.8257   -5.7405 O   0  0  0  0  0  0  0  0  0  0  0  0
    1.9135   -5.4269   -7.8758 N   0  0  0  0  0  0  0  0  0  0  0  0
    2.2227   -4.4499   -8.9227 C   0  0  1  0  0  0  0  0  0  0  0  0
    1.8294   -6.8519   -8.2054 C   0  0  1  0  0  0  0  0  0  0  0  0
    0.4141   -7.1953   -8.5925 C   0  0  0  0  0  0  0  0  0  0  0  0
   -0.5050   -7.5999   -7.6365 C   0  0  0  0  0  0  0  0  0  0  0  0
   -1.7941   -7.9068   -8.0289 C   0  0  0  0  0  0  0  0  0  0  0  0
   -2.1528   -7.8187   -9.2948 N   0  0  0  0  0  0  0  0  0  0  0  0
   -1.3057   -7.4376  -10.2307 C   0  0  0  0  0  0  0  0  0  0  0  0
   -0.0016   -7.1087   -9.9124 C   0  0  0  0  0  0  0  0  0  0  0  0
   -0.0480   -0.8379   -2.7912 S   0  0  0  0  0  0  0  0  0  0  0  0
    1.0039    1.9031    0.0027 H   0  0  0  0  0  0  0  0  0  0  0  0
   -0.5459    1.8868   -0.8726 H   0  0  0  0  0  0  0  0  0  0  0  0
   -0.5289    1.8773    0.9072 H   0  0  0  0  0  0  0  0  0  0  0  0
    0.5293   -0.3651    0.8851 H   0  0  0  0  0  0  0  0  0  0  0  0
   -1.0205   -0.3814    0.0098 H   0  0  0  0  0  0  0  0  0  0  0  0
    2.7085   -0.6084   -0.5337 H   0  0  0  0  0  0  0  0  0  0  0  0
    0.9705   -1.2683   -5.5166 H   0  0  0  0  0  0  0  0  0  0  0  0
    2.7075   -1.4501   -5.1732 H   0  0  0  0  0  0  0  0  0  0  0  0
    2.2913   -3.7222   -4.2713 H   0  0  0  0  0  0  0  0  0  0  0  0
    0.5543   -3.5403   -4.6147 H   0  0  0  0  0  0  0  0  0  0  0  0
    1.9883   -3.0570   -6.9994 H   0  0  0  0  0  0  0  0  0  0  0  0
    3.3023   -4.3126   -8.9841 H   0  0  0  0  0  0  0  0  0  0  0  0
    1.8475   -4.8120   -9.8799 H   0  0  0  0  0  0  0  0  0  0  0  0
    1.7485   -3.4982   -8.6831 H   0  0  0  0  0  0  0  0  0  0  0  0
    2.4975   -7.0722   -9.0380 H   0  0  0  0  0  0  0  0  0  0  0  0
    2.1225   -7.4434   -7.3380 H   0  0  0  0  0  0  0  0  0  0  0  0
   -0.2170   -7.6747   -6.5983 H   0  0  0  0  0  0  0  0  0  0  0  0
   -2.5159   -8.2227   -7.2903 H   0  0  0  0  0  0  0  0  0  0  0  0
   -1.6359   -7.3777  -11.2573 H   0  0  0  0  0  0  0  0  0  0  0  0
    0.6875   -6.7969  -10.6834 H   0  0  0  0  0  0  0  0  0  0  0  0
  1  2  1  0
  1 22  1  6
  1 23  1  0
  1 24  1  0
  2  3  1  0
  2 25  1  1
  2 26  1  0
  3 21  1  0
  3  4  2  0
  4  5  1  0
  4 27  1  0
  5  6  2  0
  6  7  1  0
  6 21  1  0
  7  8  1  0
  7 28  1  6
  7 29  1  0
  8  9  1  0
  8 30  1  1
  8 31  1  0
  9 10  1  0
  9 32  1  0
 10 11  2  0
 10 12  1  0
 12 13  1  0
 12 14  1  0
 13 33  1  6
 13 34  1  0
 13 35  1  0
 14 15  1  0
 14 36  1  6
 14 37  1  0
 15 20  2  0
 15 16  1  0
 16 17  2  0
 16 38  1  0
 17 18  1  0
 17 39  1  0
 18 19  2  0
 19 20  1  0
 19 40  1  0
 20 41  1  0
M  END
$$$$
