ZINC000096380186
     RDKit          3D

 43 44  0  0  0  0  0  0  0  0999 V2000
    0.0027    1.5099   -0.0065 C   0  0  1  0  0  0  0  0  0  0  0  0
    0.0202   -0.0199   -0.0197 C   0  0  1  0  0  0  0  0  0  0  0  0
    0.7669   -0.5320    1.2136 C   0  0  1  0  0  0  0  0  0  0  0  0
   -1.4162   -0.5465   -0.0013 C   0  0  1  0  0  0  0  0  0  0  0  0
   -1.4001   -2.3530   -0.1658 S   0  0  1  0  0  0  0  0  0  0  0  0
   -0.8945   -2.6860   -1.4514 O   0  0  0  0  0  0  0  0  0  0  0  0
   -0.7823   -2.9071    0.9876 O   0  0  0  0  0  0  0  0  0  0  0  0
   -3.1697   -2.7492   -0.1204 C   0  0  1  0  0  0  0  0  0  0  0  0
   -3.8736   -2.5992   -1.4812 C   0  0  1  0  0  0  0  0  0  0  0  0
   -4.5679   -3.8581   -1.1478 N   0  0  0  0  0  0  0  0  0  0  0  0
   -5.7348   -4.4204   -1.5202 C   0  0  0  0  0  0  0  0  0  0  0  0
   -6.4623   -3.8466   -2.3074 O   0  0  0  0  0  0  0  0  0  0  0  0
   -6.0952   -5.6189   -1.0199 N   0  0  0  0  0  0  0  0  0  0  0  0
   -7.3487   -6.1583   -1.3300 C   0  0  0  0  0  0  0  0  0  0  0  0
   -8.0408   -6.9001   -0.3819 C   0  0  0  0  0  0  0  0  0  0  0  0
   -9.2780   -7.4308   -0.6910 C   0  0  0  0  0  0  0  0  0  0  0  0
   -9.8274   -7.2240   -1.9430 C   0  0  0  0  0  0  0  0  0  0  0  0
  -11.1775   -7.8044   -2.2768 C   0  0  1  0  0  0  0  0  0  0  0  0
  -12.1764   -6.8835   -1.9433 F   0  0  0  0  0  0  0  0  0  0  0  0
  -11.2392   -8.0839   -3.6462 F   0  0  0  0  0  0  0  0  0  0  0  0
  -11.3701   -8.9847   -1.5508 F   0  0  0  0  0  0  0  0  0  0  0  0
   -9.1409   -6.4854   -2.8892 C   0  0  0  0  0  0  0  0  0  0  0  0
   -7.9055   -5.9480   -2.5847 C   0  0  0  0  0  0  0  0  0  0  0  0
   -3.4713   -4.2538   -0.2429 C   0  0  1  0  0  0  0  0  0  0  0  0
    1.0260    1.8851   -0.0196 H   0  0  0  0  0  0  0  0  0  0  0  0
   -0.5292    1.8748   -0.8852 H   0  0  0  0  0  0  0  0  0  0  0  0
   -0.5011    1.8598    0.8945 H   0  0  0  0  0  0  0  0  0  0  0  0
    0.5240   -0.3698   -0.9207 H   0  0  0  0  0  0  0  0  0  0  0  0
    1.7902   -0.1568    1.2006 H   0  0  0  0  0  0  0  0  0  0  0  0
    0.2631   -0.1821    2.1147 H   0  0  0  0  0  0  0  0  0  0  0  0
    0.7794   -1.6219    1.2043 H   0  0  0  0  0  0  0  0  0  0  0  0
   -1.8920   -0.2716    0.9400 H   0  0  0  0  0  0  0  0  0  0  0  0
   -1.9734   -0.1111   -0.8308 H   0  0  0  0  0  0  0  0  0  0  0  0
   -3.6931   -2.2623    0.7024 H   0  0  0  0  0  0  0  0  0  0  0  0
   -4.5352   -1.7350   -1.5407 H   0  0  0  0  0  0  0  0  0  0  0  0
   -3.2011   -2.6812   -2.3351 H   0  0  0  0  0  0  0  0  0  0  0  0
   -5.4857   -6.1075   -0.4448 H   0  0  0  0  0  0  0  0  0  0  0  0
   -7.6121   -7.0623    0.5960 H   0  0  0  0  0  0  0  0  0  0  0  0
   -9.8166   -8.0081    0.0459 H   0  0  0  0  0  0  0  0  0  0  0  0
   -9.5728   -6.3253   -3.8660 H   0  0  0  0  0  0  0  0  0  0  0  0
   -7.3699   -5.3710   -3.3240 H   0  0  0  0  0  0  0  0  0  0  0  0
   -2.6806   -4.8219   -0.7330 H   0  0  0  0  0  0  0  0  0  0  0  0
   -3.8117   -4.7108    0.6863 H   0  0  0  0  0  0  0  0  0  0  0  0
  1  2  1  0
  1 25  1  6
  1 26  1  0
  1 27  1  0
  2  3  1  0
  2  4  1  0
  2 28  1  6
  3 29  1  6
  3 30  1  0
  3 31  1  0
  4  5  1  0
  4 32  1  1
  4 33  1  0
  5  6  2  0
  5  7  2  0
  5  8  1  6
  8 24  1  0
  8  9  1  0
  8 34  1  1
  9 10  1  0
  9 35  1  1
  9 36  1  0
 10 11  1  0
 10 24  1  0
 11 12  2  0
 11 13  1  0
 13 14  1  0
 13 37  1  0
 14 23  2  0
 14 15  1  0
 15 16  2  0
 15 38  1  0
 16 17  1  0
 16 39  1  0
 17 18  1  0
 17 22  2  0
 18 19  1  1
 18 20  1  0
 18 21  1  0
 22 23  1  0
 22 40  1  0
 23 41  1  0
 24 42  1  6
 24 43  1  0
M  END
$$$$
