ZINC000013565106
     RDKit          3D

 50 52  0  0  0  0  0  0  0  0999 V2000
   -0.0178    1.4608    0.0101 C   0  0  1  0  0  0  0  0  0  0  0  0
    0.0021   -0.0041    0.0020 N   0  0  0  0  0  0  0  0  0  0  0  0
    0.0088   -0.8225   -1.0909 C   0  0  0  0  0  0  0  0  0  0  0  0
   -0.0042   -0.3166   -2.7786 S   0  0  0  0  0  0  0  0  0  0  0  0
    0.0142   -1.9336   -3.5916 C   0  0  1  0  0  0  0  0  0  0  0  0
    0.0061   -1.7444   -5.0866 C   0  0  0  0  0  0  0  0  0  0  0  0
    0.0173   -2.8176   -5.9018 N   0  0  0  0  0  0  0  0  0  0  0  0
   -0.0105   -0.6263   -5.5563 O   0  0  0  0  0  0  0  0  0  0  0  0
    0.0274   -2.0576   -0.6463 N   0  0  0  0  0  0  0  0  0  0  0  0
    0.0325   -2.0589    0.6390 N   0  0  0  0  0  0  0  0  0  0  0  0
    0.0237   -0.8356    1.0876 C   0  0  0  0  0  0  0  0  0  0  0  0
    0.0265   -0.4150    2.5347 C   0  0  1  0  0  0  0  0  0  0  0  0
   -1.2162   -0.9747    3.2307 C   0  0  1  0  0  0  0  0  0  0  0  0
   -1.2277   -0.5165    4.6925 C   0  0  1  0  0  0  0  0  0  0  0  0
    0.0423   -0.9059    5.3202 N   0  0  0  0  0  0  0  0  0  0  0  0
    0.0553   -1.7899    6.7204 S   0  0  1  0  0  0  0  0  0  0  0  0
    1.3056   -1.5337    7.3451 O   0  0  0  0  0  0  0  0  0  0  0  0
   -1.1937   -1.5539    7.3556 O   0  0  0  0  0  0  0  0  0  0  0  0
    0.0671   -3.4915    6.2629 C   0  0  0  0  0  0  0  0  0  0  0  0
   -1.1254   -4.1671    6.0829 C   0  0  0  0  0  0  0  0  0  0  0  0
   -1.1161   -5.5020    5.7240 C   0  0  0  0  0  0  0  0  0  0  0  0
    0.0857   -6.1611    5.5446 C   0  0  0  0  0  0  0  0  0  0  0  0
    0.0958   -7.6166    5.1538 C   0  0  1  0  0  0  0  0  0  0  0  0
    0.0963   -7.7249    3.7590 F   0  0  0  0  0  0  0  0  0  0  0  0
    1.2424   -8.2300    5.6696 F   0  0  0  0  0  0  0  0  0  0  0  0
   -1.0421   -8.2459    5.6699 F   0  0  0  0  0  0  0  0  0  0  0  0
    1.2782   -5.4852    5.7232 C   0  0  0  0  0  0  0  0  0  0  0  0
    1.2689   -4.1493    6.0784 C   0  0  0  0  0  0  0  0  0  0  0  0
    1.3007   -0.4965    4.6817 C   0  0  1  0  0  0  0  0  0  0  0  0
    1.2839   -0.9549    3.2200 C   0  0  1  0  0  0  0  0  0  0  0  0
    1.0048    1.8381    0.0023 H   0  0  0  0  0  0  0  0  0  0  0  0
   -0.5450    1.8219   -0.8730 H   0  0  0  0  0  0  0  0  0  0  0  0
   -0.5280    1.8123    0.9069 H   0  0  0  0  0  0  0  0  0  0  0  0
    0.9126   -2.4772   -3.2990 H   0  0  0  0  0  0  0  0  0  0  0  0
   -0.8672   -2.5008   -3.2923 H   0  0  0  0  0  0  0  0  0  0  0  0
    0.0306   -3.7119   -5.5262 H   0  0  0  0  0  0  0  0  0  0  0  0
    0.0120   -2.6958   -6.8641 H   0  0  0  0  0  0  0  0  0  0  0  0
    0.0181    0.6732    2.5966 H   0  0  0  0  0  0  0  0  0  0  0  0
   -2.1110   -0.6083    2.7276 H   0  0  0  0  0  0  0  0  0  0  0  0
   -1.1960   -2.0638    3.1910 H   0  0  0  0  0  0  0  0  0  0  0  0
   -1.3392    0.5670    4.7349 H   0  0  0  0  0  0  0  0  0  0  0  0
   -2.0559   -0.9920    5.2179 H   0  0  0  0  0  0  0  0  0  0  0  0
   -2.0643   -3.6521    6.2231 H   0  0  0  0  0  0  0  0  0  0  0  0
   -2.0478   -6.0300    5.5841 H   0  0  0  0  0  0  0  0  0  0  0  0
    2.2171   -6.0001    5.5827 H   0  0  0  0  0  0  0  0  0  0  0  0
    2.2005   -3.6211    6.2180 H   0  0  0  0  0  0  0  0  0  0  0  0
    1.3954    0.5886    4.7232 H   0  0  0  0  0  0  0  0  0  0  0  0
    2.1408   -0.9588    5.2000 H   0  0  0  0  0  0  0  0  0  0  0  0
    1.2805   -2.0442    3.1804 H   0  0  0  0  0  0  0  0  0  0  0  0
    2.1685   -0.5745    2.7093 H   0  0  0  0  0  0  0  0  0  0  0  0
  1  2  1  0
  1 31  1  6
  1 32  1  0
  1 33  1  0
  2 11  1  0
  2  3  1  0
  3  4  1  0
  3  9  2  0
  4  5  1  0
  5  6  1  0
  5 34  1  6
  5 35  1  0
  6  7  1  0
  6  8  2  0
  7 36  1  0
  7 37  1  0
  9 10  1  0
 10 11  2  0
 11 12  1  0
 12 30  1  0
 12 13  1  0
 12 38  1  6
 13 14  1  0
 13 39  1  6
 13 40  1  0
 14 15  1  0
 14 41  1  6
 14 42  1  0
 16 15  1  6
 15 29  1  0
 16 17  2  0
 16 18  2  0
 16 19  1  0
 19 28  2  0
 19 20  1  0
 20 21  2  0
 20 43  1  0
 21 22  1  0
 21 44  1  0
 22 23  1  0
 22 27  2  0
 23 24  1  6
 23 25  1  0
 23 26  1  0
 27 28  1  0
 27 45  1  0
 28 46  1  0
 29 30  1  0
 29 47  1  6
 29 48  1  0
 30 49  1  1
 30 50  1  0
M  END
$$$$
