ZINC000028208261
     RDKit          3D

 52 52  0  0  1  0  0  0  0  0999 V2000
   -0.0187    1.5258    0.0104 C   0  0  1  0  0  0  0  0  0  0  0  0
    0.0021   -0.0041    0.0020 C   0  0  1  0  0  0  0  0  0  0  0  0
    0.7421   -0.5109    1.2415 C   0  0  1  0  0  0  0  0  0  0  0  0
    0.7628   -2.0407    1.2331 C   0  0  2  0  0  0  0  0  0  0  0  0
   -0.2567   -2.4175    1.1513 H   0  0  0  0  0  0  0  0  0  0  0  0
    1.3918   -2.5494    2.5318 C   0  0  1  0  0  0  0  0  0  0  0  0
    1.5508   -2.5122    0.0916 N   0  0  0  0  0  0  0  0  0  0  0  0
    1.3205   -3.7345   -0.4273 C   0  0  0  0  0  0  0  0  0  0  0  0
    0.4611   -4.4442    0.0507 O   0  0  0  0  0  0  0  0  0  0  0  0
    2.1311   -4.2195   -1.6016 C   0  0  1  0  0  0  0  0  0  0  0  0
    1.7032   -5.5334   -1.9657 O   0  0  0  0  0  0  0  0  0  0  0  0
    2.3375   -6.1204   -3.0147 C   0  0  0  0  0  0  0  0  0  0  0  0
    3.3543   -5.4483   -3.6760 C   0  0  0  0  0  0  0  0  0  0  0  0
    3.9981   -6.0473   -4.7420 C   0  0  0  0  0  0  0  0  0  0  0  0
    3.6294   -7.3155   -5.1501 C   0  0  0  0  0  0  0  0  0  0  0  0
    4.4527   -8.0759   -6.5098 S   0  0  1  0  0  0  0  0  0  0  0  0
    3.5544   -9.0456   -7.0314 O   0  0  0  0  0  0  0  0  0  0  0  0
    4.9965   -7.0206   -7.2907 O   0  0  0  0  0  0  0  0  0  0  0  0
    5.7414   -8.9150   -5.8954 N   0  0  0  0  0  0  0  0  0  0  0  0
    5.5795  -10.3140   -5.4921 C   0  0  1  0  0  0  0  0  0  0  0  0
    6.0005  -11.2289   -6.6439 C   0  0  1  0  0  0  0  0  0  0  0  0
    7.0434   -8.2583   -5.7553 C   0  0  1  0  0  0  0  0  0  0  0  0
    7.1888   -7.7121   -4.3335 C   0  0  1  0  0  0  0  0  0  0  0  0
    2.6158   -7.9887   -4.4930 C   0  0  0  0  0  0  0  0  0  0  0  0
    1.9724   -7.3966   -3.4226 C   0  0  0  0  0  0  0  0  0  0  0  0
    0.7001   -8.2418   -2.5976 Cl  0  0  0  0  0  0  0  0  0  0  0  0
    1.0039    1.9031    0.0027 H   0  0  0  0  0  0  0  0  0  0  0  0
   -0.5459    1.8868   -0.8726 H   0  0  0  0  0  0  0  0  0  0  0  0
   -0.5289    1.8773    0.9072 H   0  0  0  0  0  0  0  0  0  0  0  0
   -1.0205   -0.3814    0.0098 H   0  0  0  0  0  0  0  0  0  0  0  0
    0.5123   -0.3556   -0.8948 H   0  0  0  0  0  0  0  0  0  0  0  0
    1.7647   -0.1336    1.2338 H   0  0  0  0  0  0  0  0  0  0  0  0
    0.2319   -0.1594    2.1383 H   0  0  0  0  0  0  0  0  0  0  0  0
    2.4113   -2.1727    2.6137 H   0  0  0  0  0  0  0  0  0  0  0  0
    0.8055   -2.1987    3.3812 H   0  0  0  0  0  0  0  0  0  0  0  0
    1.4065   -3.6393    2.5258 H   0  0  0  0  0  0  0  0  0  0  0  0
    2.2382   -1.9445   -0.2908 H   0  0  0  0  0  0  0  0  0  0  0  0
    1.9885   -3.5441   -2.4452 H   0  0  0  0  0  0  0  0  0  0  0  0
    3.1863   -4.2433   -1.3297 H   0  0  0  0  0  0  0  0  0  0  0  0
    3.6426   -4.4572   -3.3583 H   0  0  0  0  0  0  0  0  0  0  0  0
    4.7900   -5.5239   -5.2571 H   0  0  0  0  0  0  0  0  0  0  0  0
    6.2033  -10.5156   -4.6213 H   0  0  0  0  0  0  0  0  0  0  0  0
    4.5352  -10.5016   -5.2422 H   0  0  0  0  0  0  0  0  0  0  0  0
    7.0448  -11.0413   -6.8938 H   0  0  0  0  0  0  0  0  0  0  0  0
    5.8800  -12.2698   -6.3438 H   0  0  0  0  0  0  0  0  0  0  0  0
    5.3767  -11.0273   -7.5147 H   0  0  0  0  0  0  0  0  0  0  0  0
    7.8371   -8.9795   -5.9503 H   0  0  0  0  0  0  0  0  0  0  0  0
    7.1150   -7.4374   -6.4689 H   0  0  0  0  0  0  0  0  0  0  0  0
    8.1575   -7.2235   -4.2292 H   0  0  0  0  0  0  0  0  0  0  0  0
    6.3952   -6.9909   -4.1384 H   0  0  0  0  0  0  0  0  0  0  0  0
    7.1172   -8.5330   -3.6199 H   0  0  0  0  0  0  0  0  0  0  0  0
    2.3296   -8.9795   -4.8137 H   0  0  0  0  0  0  0  0  0  0  0  0
  1  2  1  0
  1 27  1  6
  1 28  1  0
  1 29  1  0
  2  3  1  0
  2 30  1  1
  2 31  1  0
  3  4  1  0
  3 32  1  6
  3 33  1  0
  4  5  1  6
  4  6  1  0
  4  7  1  0
  6 34  1  1
  6 35  1  0
  6 36  1  0
  7  8  1  0
  7 37  1  0
  8  9  2  0
  8 10  1  0
 10 11  1  0
 10 38  1  6
 10 39  1  0
 11 12  1  0
 12 25  2  0
 12 13  1  0
 13 14  2  0
 13 40  1  0
 14 15  1  0
 14 41  1  0
 15 16  1  0
 15 24  2  0
 16 17  2  0
 16 18  2  0
 16 19  1  1
 19 20  1  0
 19 22  1  0
 20 21  1  0
 20 42  1  1
 20 43  1  0
 21 44  1  6
 21 45  1  0
 21 46  1  0
 22 23  1  0
 22 47  1  6
 22 48  1  0
 23 49  1  6
 23 50  1  0
 23 51  1  0
 24 25  1  0
 24 52  1  0
 25 26  1  0
M  END
$$$$
