ZINC000002279237
     RDKit          3D

 50 51  0  0  0  0  0  0  0  0999 V2000
   -0.0173    1.4248    0.0099 C   0  0  1  0  0  0  0  0  0  0  0  0
    0.0021   -0.0041    0.0020 O   0  0  0  0  0  0  0  0  0  0  0  0
   -1.2953   -0.6030    0.0112 C   0  0  1  0  0  0  0  0  0  0  0  0
   -1.1538   -2.1264    0.0017 C   0  0  1  0  0  0  0  0  0  0  0  0
   -2.5429   -2.7677    0.0115 C   0  0  1  0  0  0  0  0  0  0  0  0
   -2.4075   -4.2264    0.0023 N   0  0  0  0  0  0  0  0  0  0  0  0
   -3.5073   -5.0054    0.0087 C   0  0  0  0  0  0  0  0  0  0  0  0
   -4.6092   -4.4987    0.0219 O   0  0  0  0  0  0  0  0  0  0  0  0
   -3.3680   -6.5059   -0.0007 C   0  0  1  0  0  0  0  0  0  0  0  0
   -4.6980   -7.1199    0.0087 N   0  0  0  0  0  0  0  0  0  0  0  0
   -5.4215   -7.3197   -1.2495 C   0  0  1  0  0  0  0  0  0  0  0  0
   -4.9853   -8.6176   -1.8791 C   0  0  0  0  0  0  0  0  0  0  0  0
   -3.9149   -8.6362   -2.7536 C   0  0  0  0  0  0  0  0  0  0  0  0
   -3.5148   -9.8266   -3.3311 C   0  0  0  0  0  0  0  0  0  0  0  0
   -4.1848  -10.9986   -3.0337 C   0  0  0  0  0  0  0  0  0  0  0  0
   -5.2546  -10.9802   -2.1585 C   0  0  0  0  0  0  0  0  0  0  0  0
   -5.6520   -9.7904   -1.5777 C   0  0  0  0  0  0  0  0  0  0  0  0
   -5.3838   -7.5881    1.4415 S   0  0  1  0  0  0  0  0  0  0  0  0
   -6.3345   -8.5945    1.1214 O   0  0  0  0  0  0  0  0  0  0  0  0
   -4.3117   -7.7929    2.3514 O   0  0  0  0  0  0  0  0  0  0  0  0
   -6.3010   -6.2141    2.0543 C   0  0  0  0  0  0  0  0  0  0  0  0
   -5.6901   -5.2882    2.8793 C   0  0  0  0  0  0  0  0  0  0  0  0
   -6.4090   -4.2102    3.3603 C   0  0  0  0  0  0  0  0  0  0  0  0
   -7.7403   -4.0579    3.0160 C   0  0  0  0  0  0  0  0  0  0  0  0
   -8.6438   -2.7039    3.6194 Cl  0  0  0  0  0  0  0  0  0  0  0  0
   -8.3511   -4.9849    2.1903 C   0  0  0  0  0  0  0  0  0  0  0  0
   -7.6296   -6.0594    1.7054 C   0  0  0  0  0  0  0  0  0  0  0  0
    1.0053    1.8021    0.0021 H   0  0  0  0  0  0  0  0  0  0  0  0
   -0.5445    1.7859   -0.8732 H   0  0  0  0  0  0  0  0  0  0  0  0
   -0.5275    1.7763    0.9067 H   0  0  0  0  0  0  0  0  0  0  0  0
   -1.8320   -0.2936    0.9080 H   0  0  0  0  0  0  0  0  0  0  0  0
   -1.8490   -0.2840   -0.8718 H   0  0  0  0  0  0  0  0  0  0  0  0
   -0.6171   -2.4359   -0.8952 H   0  0  0  0  0  0  0  0  0  0  0  0
   -0.6001   -2.4454    0.8847 H   0  0  0  0  0  0  0  0  0  0  0  0
   -3.0796   -2.4582    0.9083 H   0  0  0  0  0  0  0  0  0  0  0  0
   -3.0966   -2.4487   -0.8716 H   0  0  0  0  0  0  0  0  0  0  0  0
   -1.5262   -4.6316   -0.0082 H   0  0  0  0  0  0  0  0  0  0  0  0
   -2.8312   -6.8153   -0.8975 H   0  0  0  0  0  0  0  0  0  0  0  0
   -2.8143   -6.8249    0.8823 H   0  0  0  0  0  0  0  0  0  0  0  0
   -6.4927   -7.3541   -1.0511 H   0  0  0  0  0  0  0  0  0  0  0  0
   -5.2040   -6.4953   -1.9285 H   0  0  0  0  0  0  0  0  0  0  0  0
   -3.3915   -7.7205   -2.9859 H   0  0  0  0  0  0  0  0  0  0  0  0
   -2.6790   -9.8411   -4.0149 H   0  0  0  0  0  0  0  0  0  0  0  0
   -3.8727  -11.9286   -3.4855 H   0  0  0  0  0  0  0  0  0  0  0  0
   -5.7783  -11.8958   -1.9264 H   0  0  0  0  0  0  0  0  0  0  0  0
   -6.4879   -9.7760   -0.8938 H   0  0  0  0  0  0  0  0  0  0  0  0
   -4.6509   -5.4074    3.1483 H   0  0  0  0  0  0  0  0  0  0  0  0
   -5.9317   -3.4872    4.0051 H   0  0  0  0  0  0  0  0  0  0  0  0
   -9.3904   -4.8666    1.9215 H   0  0  0  0  0  0  0  0  0  0  0  0
   -8.1062   -6.7828    1.0605 H   0  0  0  0  0  0  0  0  0  0  0  0
  1  2  1  0
  1 28  1  6
  1 29  1  0
  1 30  1  0
  2  3  1  0
  3  4  1  0
  3 31  1  1
  3 32  1  0
  4  5  1  0
  4 33  1  6
  4 34  1  0
  5  6  1  0
  5 35  1  1
  5 36  1  0
  6  7  1  0
  6 37  1  0
  7  8  2  0
  7  9  1  0
  9 10  1  0
  9 38  1  6
  9 39  1  0
 10 11  1  0
 18 10  1  6
 11 12  1  0
 11 40  1  1
 11 41  1  0
 12 17  2  0
 12 13  1  0
 13 14  2  0
 13 42  1  0
 14 15  1  0
 14 43  1  0
 15 16  2  0
 15 44  1  0
 16 17  1  0
 16 45  1  0
 17 46  1  0
 18 19  2  0
 18 20  2  0
 18 21  1  0
 21 27  2  0
 21 22  1  0
 22 23  2  0
 22 47  1  0
 23 24  1  0
 23 48  1  0
 24 25  1  0
 24 26  2  0
 26 27  1  0
 26 49  1  0
 27 50  1  0
M  END
$$$$
