ZINC000058331448
     RDKit          3D

 47 49  0  0  0  0  0  0  0  0999 V2000
    0.5791   -3.2784    1.5483 C   0  0  1  0  0  0  0  0  0  0  0  0
    0.2678   -2.0915    0.6735 C   0  0  0  0  0  0  0  0  0  0  0  0
    0.2767   -2.0793   -0.6750 C   0  0  0  0  0  0  0  0  0  0  0  0
   -0.0705   -0.7775   -1.0872 C   0  0  0  0  0  0  0  0  0  0  0  0
   -0.2783   -0.0439    0.0250 C   0  0  0  0  0  0  0  0  0  0  0  0
   -0.6715    1.4104    0.0633 C   0  0  1  0  0  0  0  0  0  0  0  0
   -0.0771   -0.8463    1.1088 N   0  0  0  0  0  0  0  0  0  0  0  0
   -0.2021   -0.4360    2.5096 C   0  0  1  0  0  0  0  0  0  0  0  0
    0.8961    0.5759    2.8444 C   0  0  1  0  0  0  0  0  0  0  0  0
    0.7836    0.9764    4.3187 C   0  0  1  0  0  0  0  0  0  0  0  0
   -0.5803    1.4591    4.5749 N   0  0  0  0  0  0  0  0  0  0  0  0
   -0.8344    2.9424    5.2660 S   0  0  1  0  0  0  0  0  0  0  0  0
   -2.1186    2.8880    5.8720 O   0  0  0  0  0  0  0  0  0  0  0  0
    0.3506    3.2593    5.9832 O   0  0  0  0  0  0  0  0  0  0  0  0
   -0.9517    4.1150    3.9560 C   0  0  0  0  0  0  0  0  0  0  0  0
    0.1857    4.7486    3.4917 C   0  0  0  0  0  0  0  0  0  0  0  0
    0.0937    5.6685    2.4640 C   0  0  0  0  0  0  0  0  0  0  0  0
   -1.1357    5.9545    1.9003 C   0  0  0  0  0  0  0  0  0  0  0  0
   -1.2360    6.9577    0.7803 C   0  0  1  0  0  0  0  0  0  0  0  0
   -1.0879    6.3028   -0.4470 F   0  0  0  0  0  0  0  0  0  0  0  0
   -2.4858    7.5847    0.8264 F   0  0  0  0  0  0  0  0  0  0  0  0
   -0.2276    7.9170    0.9217 F   0  0  0  0  0  0  0  0  0  0  0  0
   -2.2729    5.3199    2.3638 C   0  0  0  0  0  0  0  0  0  0  0  0
   -2.1804    4.3971    3.3889 C   0  0  0  0  0  0  0  0  0  0  0  0
   -1.7144    0.6011    4.2058 C   0  0  1  0  0  0  0  0  0  0  0  0
   -1.5739    0.2048    2.7327 C   0  0  1  0  0  0  0  0  0  0  0  0
   -0.3485   -3.7810    1.8223 H   0  0  0  0  0  0  0  0  0  0  0  0
    1.2212   -3.9717    1.0050 H   0  0  0  0  0  0  0  0  0  0  0  0
    1.0897   -2.9410    2.4502 H   0  0  0  0  0  0  0  0  0  0  0  0
    0.5075   -2.9140   -1.3203 H   0  0  0  0  0  0  0  0  0  0  0  0
   -0.1548   -0.4310   -2.1066 H   0  0  0  0  0  0  0  0  0  0  0  0
   -1.7540    1.4917    0.1612 H   0  0  0  0  0  0  0  0  0  0  0  0
   -0.1924    1.8940    0.9146 H   0  0  0  0  0  0  0  0  0  0  0  0
   -0.3524    1.8975   -0.8581 H   0  0  0  0  0  0  0  0  0  0  0  0
   -0.0999   -1.3090    3.1541 H   0  0  0  0  0  0  0  0  0  0  0  0
    1.8724    0.1266    2.6629 H   0  0  0  0  0  0  0  0  0  0  0  0
    0.7797    1.4599    2.2174 H   0  0  0  0  0  0  0  0  0  0  0  0
    0.9894    0.1113    4.9491 H   0  0  0  0  0  0  0  0  0  0  0  0
    1.4989    1.7692    4.5377 H   0  0  0  0  0  0  0  0  0  0  0  0
    1.1462    4.5251    3.9320 H   0  0  0  0  0  0  0  0  0  0  0  0
    0.9823    6.1640    2.1016 H   0  0  0  0  0  0  0  0  0  0  0  0
   -3.2334    5.5430    1.9232 H   0  0  0  0  0  0  0  0  0  0  0  0
   -3.0689    3.9013    3.7510 H   0  0  0  0  0  0  0  0  0  0  0  0
   -1.7122   -0.2946    4.8269 H   0  0  0  0  0  0  0  0  0  0  0  0
   -2.6472    1.1461    4.3502 H   0  0  0  0  0  0  0  0  0  0  0  0
   -1.6670    1.0922    2.1067 H   0  0  0  0  0  0  0  0  0  0  0  0
   -2.3555   -0.5087    2.4717 H   0  0  0  0  0  0  0  0  0  0  0  0
  1  2  1  0
  1 27  1  1
  1 28  1  0
  1 29  1  0
  2  7  1  0
  2  3  2  0
  3  4  1  0
  3 30  1  0
  4  5  2  0
  4 31  1  0
  5  6  1  0
  5  7  1  0
  6 32  1  1
  6 33  1  0
  6 34  1  0
  7  8  1  0
  8 26  1  0
  8  9  1  0
  8 35  1  1
  9 10  1  0
  9 36  1  1
  9 37  1  0
 10 11  1  0
 10 38  1  1
 10 39  1  0
 12 11  1  6
 11 25  1  0
 12 13  2  0
 12 14  2  0
 12 15  1  0
 15 24  2  0
 15 16  1  0
 16 17  2  0
 16 40  1  0
 17 18  1  0
 17 41  1  0
 18 19  1  0
 18 23  2  0
 19 20  1  6
 19 21  1  0
 19 22  1  0
 23 24  1  0
 23 42  1  0
 24 43  1  0
 25 26  1  0
 25 44  1  1
 25 45  1  0
 26 46  1  6
 26 47  1  0
M  END
$$$$
