ZINC000004452616
     RDKit          3D

 41 43  0  0  1  0  0  0  0  0999 V2000
    0.0021   -0.0041    0.0020 O   0  0  0  0  0  0  0  0  0  0  0  0
   -0.0144    1.2086    0.0087 C   0  0  0  0  0  0  0  0  0  0  0  0
    1.1435    1.8983    0.0013 N   0  0  0  0  0  0  0  0  0  0  0  0
    2.4220    1.1832   -0.0147 C   0  0  2  0  0  0  0  0  0  0  0  0
    2.5831    0.3433    1.2540 C   0  0  1  0  0  0  0  0  0  0  0  0
    1.5516   -0.5992    1.3235 F   0  0  0  0  0  0  0  0  0  0  0  0
    3.8164   -0.3165    1.2230 F   0  0  0  0  0  0  0  0  0  0  0  0
    2.5288    1.1777    2.3756 F   0  0  0  0  0  0  0  0  0  0  0  0
    3.5427    2.1281   -0.1603 N   0  0  0  0  0  0  0  0  0  0  0  0
    4.1664    1.8112   -1.3094 C   0  0  0  0  0  0  0  0  0  0  0  0
    5.1419    2.3994   -1.7331 O   0  0  0  0  0  0  0  0  0  0  0  0
    3.5929    0.7761   -1.9335 N   0  0  0  0  0  0  0  0  0  0  0  0
    4.0633    0.2175   -3.2035 C   0  0  1  0  0  0  0  0  0  0  0  0
    5.0868   -0.8858   -2.9274 C   0  0  1  0  0  0  0  0  0  0  0  0
    5.5708   -1.4604   -4.2338 C   0  0  0  0  0  0  0  0  0  0  0  0
    4.9083   -2.5302   -4.8060 C   0  0  0  0  0  0  0  0  0  0  0  0
    5.3522   -3.0573   -6.0043 C   0  0  0  0  0  0  0  0  0  0  0  0
    6.4583   -2.5142   -6.6307 C   0  0  0  0  0  0  0  0  0  0  0  0
    7.1203   -1.4438   -6.0590 C   0  0  0  0  0  0  0  0  0  0  0  0
    6.6738   -0.9140   -4.8628 C   0  0  0  0  0  0  0  0  0  0  0  0
    2.5293    0.3103   -1.2493 C   0  0  0  0  0  0  0  0  0  0  0  0
    1.8089   -0.6150   -1.5568 O   0  0  0  0  0  0  0  0  0  0  0  0
   -1.3296    1.9443    0.0189 C   0  0  1  0  0  0  0  0  0  0  0  0
   -2.1936    1.8643   -1.2412 C   0  0  1  0  0  0  0  0  0  0  0  0
   -2.6086    1.1047    0.0204 C   0  0  1  0  0  0  0  0  0  0  0  0
    1.1304    2.8682    0.0067 H   0  0  0  0  0  0  0  0  0  0  0  0
    3.7835    2.8404    0.4525 H   0  0  0  0  0  0  0  0  0  0  0  0
    3.2188   -0.1994   -3.7521 H   0  0  0  0  0  0  0  0  0  0  0  0
    4.5288    1.0048   -3.7965 H   0  0  0  0  0  0  0  0  0  0  0  0
    5.9314   -0.4688   -2.3788 H   0  0  0  0  0  0  0  0  0  0  0  0
    4.6214   -1.6730   -2.3345 H   0  0  0  0  0  0  0  0  0  0  0  0
    4.0440   -2.9545   -4.3166 H   0  0  0  0  0  0  0  0  0  0  0  0
    4.8350   -3.8936   -6.4510 H   0  0  0  0  0  0  0  0  0  0  0  0
    6.8056   -2.9265   -7.5666 H   0  0  0  0  0  0  0  0  0  0  0  0
    7.9847   -1.0197   -6.5482 H   0  0  0  0  0  0  0  0  0  0  0  0
    7.1910   -0.0777   -4.4162 H   0  0  0  0  0  0  0  0  0  0  0  0
   -1.3407    2.8795    0.5787 H   0  0  0  0  0  0  0  0  0  0  0  0
   -2.7733    2.7471   -1.5108 H   0  0  0  0  0  0  0  0  0  0  0  0
   -1.8108    1.2795   -2.0776 H   0  0  0  0  0  0  0  0  0  0  0  0
   -2.4989    0.0203    0.0140 H   0  0  0  0  0  0  0  0  0  0  0  0
   -3.4614    1.4878    0.5808 H   0  0  0  0  0  0  0  0  0  0  0  0
  1  2  2  0
  2  3  1  0
  2 23  1  0
  3 26  1  0
  4  3  1  1
  4 21  1  0
  4  5  1  0
  4  9  1  0
  5  6  1  1
  5  7  1  0
  5  8  1  0
  9 10  1  0
  9 27  1  0
 10 11  2  0
 10 12  1  0
 12 13  1  0
 12 21  1  0
 13 14  1  0
 13 28  1  6
 13 29  1  0
 14 15  1  0
 14 30  1  1
 14 31  1  0
 15 20  2  0
 15 16  1  0
 16 17  2  0
 16 32  1  0
 17 18  1  0
 17 33  1  0
 18 19  2  0
 18 34  1  0
 19 20  1  0
 19 35  1  0
 20 36  1  0
 21 22  2  0
 23 25  1  0
 23 24  1  0
 23 37  1  1
 24 25  1  0
 24 38  1  6
 24 39  1  0
 25 40  1  6
 25 41  1  0
M  END
$$$$
