ZINC000016652118
     RDKit          3D

 42 42  0  0  0  0  0  0  0  0999 V2000
   -0.0187    1.5258    0.0104 C   0  0  1  0  0  0  0  0  0  0  0  0
    0.0021   -0.0041    0.0020 C   0  0  1  0  0  0  0  0  0  0  0  0
   -1.3723   -0.5112    0.0124 N   0  0  0  0  0  0  0  0  0  0  0  0
   -2.1099   -0.6542   -1.2453 C   0  0  1  0  0  0  0  0  0  0  0  0
   -1.7727   -2.0031   -1.8836 C   0  0  1  0  0  0  0  0  0  0  0  0
   -2.0922   -0.9227    1.4458 S   0  0  1  0  0  0  0  0  0  0  0  0
   -3.1196   -1.8512    1.1269 O   0  0  0  0  0  0  0  0  0  0  0  0
   -1.0393   -1.2108    2.3555 O   0  0  0  0  0  0  0  0  0  0  0  0
   -2.8978    0.5199    2.0580 C   0  0  0  0  0  0  0  0  0  0  0  0
   -2.2156    1.3954    2.8820 C   0  0  0  0  0  0  0  0  0  0  0  0
   -2.8476    2.5271    3.3622 C   0  0  0  0  0  0  0  0  0  0  0  0
   -4.1616    2.7836    3.0181 C   0  0  0  0  0  0  0  0  0  0  0  0
   -4.8508    4.0171    3.5421 C   0  0  1  0  0  0  0  0  0  0  0  0
   -4.6371    5.1747    2.5647 C   0  0  1  0  0  0  0  0  0  0  0  0
   -5.3263    6.4082    3.0886 C   0  0  0  0  0  0  0  0  0  0  0  0
   -5.9290    6.3657    4.1402 O   0  0  0  0  0  0  0  0  0  0  0  0
   -5.2728    7.5587    2.3886 N   0  0  0  0  0  0  0  0  0  0  0  0
   -5.9428    8.7579    2.8979 C   0  0  1  0  0  0  0  0  0  0  0  0
   -4.8434    1.9088    2.1930 C   0  0  0  0  0  0  0  0  0  0  0  0
   -4.2102    0.7790    1.7096 C   0  0  0  0  0  0  0  0  0  0  0  0
    1.0039    1.9031    0.0027 H   0  0  0  0  0  0  0  0  0  0  0  0
   -0.5459    1.8868   -0.8726 H   0  0  0  0  0  0  0  0  0  0  0  0
   -0.5289    1.8773    0.9072 H   0  0  0  0  0  0  0  0  0  0  0  0
    0.5123   -0.3556   -0.8948 H   0  0  0  0  0  0  0  0  0  0  0  0
    0.5293   -0.3651    0.8851 H   0  0  0  0  0  0  0  0  0  0  0  0
   -3.1804   -0.6037   -1.0465 H   0  0  0  0  0  0  0  0  0  0  0  0
   -1.8283    0.1500   -1.9251 H   0  0  0  0  0  0  0  0  0  0  0  0
   -2.0544   -2.8073   -1.2038 H   0  0  0  0  0  0  0  0  0  0  0  0
   -2.3215   -2.1096   -2.8194 H   0  0  0  0  0  0  0  0  0  0  0  0
   -0.7022   -2.0536   -2.0825 H   0  0  0  0  0  0  0  0  0  0  0  0
   -1.1890    1.1950    3.1509 H   0  0  0  0  0  0  0  0  0  0  0  0
   -2.3149    3.2108    4.0066 H   0  0  0  0  0  0  0  0  0  0  0  0
   -5.9180    3.8210    3.6452 H   0  0  0  0  0  0  0  0  0  0  0  0
   -4.4342    4.2808    4.5142 H   0  0  0  0  0  0  0  0  0  0  0  0
   -3.5699    5.3709    2.4615 H   0  0  0  0  0  0  0  0  0  0  0  0
   -5.0537    4.9110    1.5925 H   0  0  0  0  0  0  0  0  0  0  0  0
   -4.7908    7.5927    1.5475 H   0  0  0  0  0  0  0  0  0  0  0  0
   -5.7906    9.5825    2.2016 H   0  0  0  0  0  0  0  0  0  0  0  0
   -7.0100    8.5617    3.0011 H   0  0  0  0  0  0  0  0  0  0  0  0
   -5.5262    9.0216    3.8701 H   0  0  0  0  0  0  0  0  0  0  0  0
   -5.8699    2.1094    1.9238 H   0  0  0  0  0  0  0  0  0  0  0  0
   -4.7428    0.0956    1.0650 H   0  0  0  0  0  0  0  0  0  0  0  0
  1  2  1  0
  1 21  1  6
  1 22  1  0
  1 23  1  0
  2  3  1  0
  2 24  1  6
  2 25  1  0
  3  4  1  0
  6  3  1  6
  4  5  1  0
  4 26  1  1
  4 27  1  0
  5 28  1  1
  5 29  1  0
  5 30  1  0
  6  7  2  0
  6  8  2  0
  6  9  1  0
  9 20  2  0
  9 10  1  0
 10 11  2  0
 10 31  1  0
 11 12  1  0
 11 32  1  0
 12 13  1  0
 12 19  2  0
 13 14  1  0
 13 33  1  1
 13 34  1  0
 14 15  1  0
 14 35  1  6
 14 36  1  0
 15 16  2  0
 15 17  1  0
 17 18  1  0
 17 37  1  0
 18 38  1  6
 18 39  1  0
 18 40  1  0
 19 20  1  0
 19 41  1  0
 20 42  1  0
M  END
$$$$
