ZINC000042036370
     RDKit          3D

 41 43  0  0  1  0  0  0  0  0999 V2000
   -0.0173    1.4248    0.0099 C   0  0  1  0  0  0  0  0  0  0  0  0
    0.0021   -0.0041    0.0020 O   0  0  0  0  0  0  0  0  0  0  0  0
   -1.2953   -0.6030    0.0112 C   0  0  1  0  0  0  0  0  0  0  0  0
   -1.1560   -2.1035    0.0018 C   0  0  0  0  0  0  0  0  0  0  0  0
   -0.0541   -2.6101   -0.0114 O   0  0  0  0  0  0  0  0  0  0  0  0
   -2.2558   -2.8825    0.0081 N   0  0  0  0  0  0  0  0  0  0  0  0
   -3.5974   -2.2834    0.0180 C   0  0  1  0  0  0  0  0  0  0  0  0
   -4.3908   -2.8702    1.1897 C   0  0  1  0  0  0  0  0  0  0  0  0
   -4.3850   -4.3974    1.0906 C   0  0  1  0  0  0  0  0  0  0  0  0
   -2.9458   -4.9105    1.1767 C   0  0  1  0  0  0  0  0  0  0  0  0
   -2.4995   -4.5860    2.1167 H   0  0  0  0  0  0  0  0  0  0  0  0
   -2.9439   -6.4161    1.1122 C   0  0  0  0  0  0  0  0  0  0  0  0
   -3.3953   -7.1486    0.1271 N   0  0  0  0  0  0  0  0  0  0  0  0
   -3.2420   -8.3982    0.3934 N   0  0  0  0  0  0  0  0  0  0  0  0
   -2.6755   -8.5298    1.5818 C   0  0  0  0  0  0  0  0  0  0  0  0
   -2.2863   -9.6429    2.3515 C   0  0  0  0  0  0  0  0  0  0  0  0
   -1.7134   -9.4413    3.5686 C   0  0  0  0  0  0  0  0  0  0  0  0
   -1.5185   -8.1313    4.0391 C   0  0  0  0  0  0  0  0  0  0  0  0
   -0.8835   -7.9060    5.3871 C   0  0  1  0  0  0  0  0  0  0  0  0
   -1.8643   -7.9758    6.3822 F   0  0  0  0  0  0  0  0  0  0  0  0
    0.0846   -8.8896    5.6167 F   0  0  0  0  0  0  0  0  0  0  0  0
   -0.2812   -6.6436    5.4137 F   0  0  0  0  0  0  0  0  0  0  0  0
   -1.8966   -7.0741    3.2903 C   0  0  0  0  0  0  0  0  0  0  0  0
   -2.4668   -7.2615    2.0657 N   0  0  0  0  0  0  0  0  0  0  0  0
   -2.1361   -4.3468   -0.0009 C   0  0  1  0  0  0  0  0  0  0  0  0
    1.0053    1.8021    0.0021 H   0  0  0  0  0  0  0  0  0  0  0  0
   -0.5445    1.7859   -0.8732 H   0  0  0  0  0  0  0  0  0  0  0  0
   -0.5275    1.7763    0.9067 H   0  0  0  0  0  0  0  0  0  0  0  0
   -1.8320   -0.2936    0.9080 H   0  0  0  0  0  0  0  0  0  0  0  0
   -1.8490   -0.2840   -0.8718 H   0  0  0  0  0  0  0  0  0  0  0  0
   -3.5143   -1.2032    0.1374 H   0  0  0  0  0  0  0  0  0  0  0  0
   -4.1063   -2.5115   -0.9186 H   0  0  0  0  0  0  0  0  0  0  0  0
   -3.9309   -2.5649    2.1296 H   0  0  0  0  0  0  0  0  0  0  0  0
   -5.4178   -2.5070    1.1518 H   0  0  0  0  0  0  0  0  0  0  0  0
   -4.9696   -4.8166    1.9095 H   0  0  0  0  0  0  0  0  0  0  0  0
   -4.8226   -4.7012    0.1396 H   0  0  0  0  0  0  0  0  0  0  0  0
   -2.4413  -10.6451    1.9800 H   0  0  0  0  0  0  0  0  0  0  0  0
   -1.4097  -10.2845    4.1712 H   0  0  0  0  0  0  0  0  0  0  0  0
   -1.7421   -6.0718    3.6617 H   0  0  0  0  0  0  0  0  0  0  0  0
   -2.5272   -4.7450   -0.9371 H   0  0  0  0  0  0  0  0  0  0  0  0
   -1.0884   -4.6273    0.1086 H   0  0  0  0  0  0  0  0  0  0  0  0
  1  2  1  0
  1 26  1  6
  1 27  1  0
  1 28  1  0
  2  3  1  0
  3  4  1  0
  3 29  1  1
  3 30  1  0
  4  5  2  0
  4  6  1  0
  6 25  1  0
  6  7  1  0
  7  8  1  0
  7 31  1  1
  7 32  1  0
  8  9  1  0
  8 33  1  1
  8 34  1  0
  9 10  1  0
  9 35  1  1
  9 36  1  0
 10 11  1  1
 10 12  1  0
 10 25  1  0
 12 24  1  0
 12 13  2  0
 13 14  1  0
 14 15  2  0
 15 24  1  0
 15 16  1  0
 16 17  2  0
 16 37  1  0
 17 18  1  0
 17 38  1  0
 18 19  1  0
 18 23  2  0
 19 20  1  1
 19 21  1  0
 19 22  1  0
 23 24  1  0
 23 39  1  0
 25 40  1  6
 25 41  1  0
M  END
$$$$
