ZINC000028427933
     RDKit          3D

 60 62  0  0  1  0  0  0  0  0999 V2000
    0.3116    1.4901    0.1586 C   0  0  1  0  0  0  0  0  0  0  0  0
   -0.0122    0.0035   -0.0032 C   0  0  1  0  0  0  0  0  0  0  0  0
    0.4380   -0.7555    1.2467 C   0  0  1  0  0  0  0  0  0  0  0  0
   -1.5204   -0.1725   -0.1912 C   0  0  1  0  0  0  0  0  0  0  0  0
    0.7110   -0.5398   -1.2085 C   0  0  0  0  0  0  0  0  0  0  0  0
    1.2649    0.2184   -1.9761 O   0  0  0  0  0  0  0  0  0  0  0  0
    0.7423   -1.8683   -1.4335 N   0  0  0  0  0  0  0  0  0  0  0  0
    0.0353   -2.8908   -0.6410 C   0  0  1  0  0  0  0  0  0  0  0  0
   -0.1330   -4.0925   -1.6040 C   0  0  1  0  0  0  0  0  0  0  0  0
    1.2031   -4.0500   -2.3916 C   0  0  1  0  0  0  0  0  0  0  0  0
    1.4820   -2.5372   -2.5137 C   0  0  2  0  0  0  0  0  0  0  0  0
    1.1407   -2.1745   -3.4833 H   0  0  0  0  0  0  0  0  0  0  0  0
    2.9577   -2.2740   -2.3587 C   0  0  0  0  0  0  0  0  0  0  0  0
    3.3577   -1.5822   -1.4463 O   0  0  0  0  0  0  0  0  0  0  0  0
    3.8330   -2.8072   -3.2339 N   0  0  0  0  0  0  0  0  0  0  0  0
    3.3621   -3.6424   -4.3478 C   0  0  1  0  0  0  0  0  0  0  0  0
    3.8911   -3.0519   -5.6607 C   0  0  1  0  0  0  0  0  0  0  0  0
    5.3334   -2.8083   -5.5186 N   0  0  0  0  0  0  0  0  0  0  0  0
    6.4087   -3.4626   -6.5946 S   0  0  1  0  0  0  0  0  0  0  0  0
    7.6583   -3.5316   -5.9215 O   0  0  0  0  0  0  0  0  0  0  0  0
    5.7682   -4.5969   -7.1625 O   0  0  0  0  0  0  0  0  0  0  0  0
    6.6115   -2.2991   -7.9022 C   0  0  0  0  0  0  0  0  0  0  0  0
    5.7821   -2.3494   -9.0070 C   0  0  0  0  0  0  0  0  0  0  0  0
    5.9412   -1.4366  -10.0328 C   0  0  0  0  0  0  0  0  0  0  0  0
    6.9294   -0.4732   -9.9537 C   0  0  0  0  0  0  0  0  0  0  0  0
    7.1031    0.5216  -11.0723 C   0  0  1  0  0  0  0  0  0  0  0  0
    6.3115    1.6476  -10.8221 F   0  0  0  0  0  0  0  0  0  0  0  0
    8.4465    0.9042  -11.1516 F   0  0  0  0  0  0  0  0  0  0  0  0
    6.7127   -0.0635  -12.2816 F   0  0  0  0  0  0  0  0  0  0  0  0
    7.7579   -0.4221   -8.8483 C   0  0  0  0  0  0  0  0  0  0  0  0
    7.5963   -1.3325   -7.8207 C   0  0  0  0  0  0  0  0  0  0  0  0
    5.8043   -1.9732   -4.4047 C   0  0  1  0  0  0  0  0  0  0  0  0
    5.2748   -2.5590   -3.0951 C   0  0  1  0  0  0  0  0  0  0  0  0
    1.3860    1.6154    0.2926 H   0  0  0  0  0  0  0  0  0  0  0  0
   -0.0091    2.0308   -0.7318 H   0  0  0  0  0  0  0  0  0  0  0  0
   -0.2115    1.8830    1.0305 H   0  0  0  0  0  0  0  0  0  0  0  0
   -0.0851   -0.3625    2.1185 H   0  0  0  0  0  0  0  0  0  0  0  0
    0.2073   -1.8146    1.1314 H   0  0  0  0  0  0  0  0  0  0  0  0
    1.5124   -0.6301    1.3806 H   0  0  0  0  0  0  0  0  0  0  0  0
   -1.8628    0.4700   -1.0024 H   0  0  0  0  0  0  0  0  0  0  0  0
   -1.7372   -1.2124   -0.4351 H   0  0  0  0  0  0  0  0  0  0  0  0
   -2.0355    0.0997    0.7300 H   0  0  0  0  0  0  0  0  0  0  0  0
    0.6315   -3.1790    0.2247 H   0  0  0  0  0  0  0  0  0  0  0  0
   -0.9392   -2.5188   -0.3247 H   0  0  0  0  0  0  0  0  0  0  0  0
   -0.2306   -5.0262   -1.0502 H   0  0  0  0  0  0  0  0  0  0  0  0
   -0.9836   -3.9439   -2.2693 H   0  0  0  0  0  0  0  0  0  0  0  0
    1.9958   -4.5482   -1.8333 H   0  0  0  0  0  0  0  0  0  0  0  0
    1.0839   -4.4987   -3.3778 H   0  0  0  0  0  0  0  0  0  0  0  0
    3.7366   -4.6588   -4.2267 H   0  0  0  0  0  0  0  0  0  0  0  0
    2.2722   -3.6508   -4.3634 H   0  0  0  0  0  0  0  0  0  0  0  0
    3.7174   -3.7559   -6.4746 H   0  0  0  0  0  0  0  0  0  0  0  0
    3.3803   -2.1123   -5.8712 H   0  0  0  0  0  0  0  0  0  0  0  0
    5.0101   -3.1021   -9.0688 H   0  0  0  0  0  0  0  0  0  0  0  0
    5.2937   -1.4764  -10.8962 H   0  0  0  0  0  0  0  0  0  0  0  0
    8.5297    0.3308   -8.7863 H   0  0  0  0  0  0  0  0  0  0  0  0
    8.2436   -1.2925   -6.9571 H   0  0  0  0  0  0  0  0  0  0  0  0
    6.8941   -1.9647   -4.3892 H   0  0  0  0  0  0  0  0  0  0  0  0
    5.4298   -0.9567   -4.5258 H   0  0  0  0  0  0  0  0  0  0  0  0
    5.4491   -1.8542   -2.2821 H   0  0  0  0  0  0  0  0  0  0  0  0
    5.7837   -3.4993   -2.8827 H   0  0  0  0  0  0  0  0  0  0  0  0
  1  2  1  0
  1 34  1  1
  1 35  1  0
  1 36  1  0
  2  3  1  0
  2  4  1  0
  2  5  1  6
  3 37  1  1
  3 38  1  0
  3 39  1  0
  4 40  1  6
  4 41  1  0
  4 42  1  0
  5  6  2  0
  5  7  1  0
  7 11  1  0
  7  8  1  0
  8  9  1  0
  8 43  1  1
  8 44  1  0
  9 10  1  0
  9 45  1  1
  9 46  1  0
 10 11  1  0
 10 47  1  1
 10 48  1  0
 11 12  1  6
 11 13  1  0
 13 14  2  0
 13 15  1  0
 15 33  1  0
 15 16  1  0
 16 17  1  0
 16 49  1  1
 16 50  1  0
 17 18  1  0
 17 51  1  6
 17 52  1  0
 19 18  1  1
 18 32  1  0
 19 20  2  0
 19 21  2  0
 19 22  1  0
 22 31  2  0
 22 23  1  0
 23 24  2  0
 23 53  1  0
 24 25  1  0
 24 54  1  0
 25 26  1  0
 25 30  2  0
 26 27  1  1
 26 28  1  0
 26 29  1  0
 30 31  1  0
 30 55  1  0
 31 56  1  0
 32 33  1  0
 32 57  1  1
 32 58  1  0
 33 59  1  1
 33 60  1  0
M  END
$$$$
