ZINC000426722728
     RDKit          3D

 47 49  0  0  1  0  0  0  0  0999 V2000
   -0.0178    1.4648    0.0101 C   0  0  1  0  0  0  0  0  0  0  0  0
    0.0021   -0.0041    0.0020 N   0  0  1  0  0  0  0  0  0  0  0  0
   -0.9445   -0.3533    0.0092 H   0  0  0  0  0  0  0  0  0  0  0  0
    0.6897   -0.4778   -1.2066 C   0  0  1  0  0  0  0  0  0  0  0  0
    0.7126   -0.4907    1.1921 C   0  0  1  0  0  0  0  0  0  0  0  0
   -0.0711   -0.1034    2.4478 C   0  0  1  0  0  0  0  0  0  0  0  0
   -0.6619    0.8092    2.3697 H   0  0  0  0  0  0  0  0  0  0  0  0
   -0.6365   -1.2383    3.3041 C   0  0  2  0  0  0  0  0  0  0  0  0
   -0.5283   -2.2698    2.9687 H   0  0  0  0  0  0  0  0  0  0  0  0
   -1.8045   -0.9156    4.2609 C   0  0  1  0  0  0  0  0  0  0  0  0
   -1.1501   -0.4550    5.5076 N   0  0  0  0  0  0  0  0  0  0  0  0
   -1.5090   -0.7254    6.7783 C   0  0  0  0  0  0  0  0  0  0  0  0
   -2.4776   -1.4260    7.0004 O   0  0  0  0  0  0  0  0  0  0  0  0
   -0.7943   -0.2192    7.8026 N   0  0  0  0  0  0  0  0  0  0  0  0
   -1.1843   -0.5131    9.1838 C   0  0  1  0  0  0  0  0  0  0  0  0
   -0.2296    0.1669   10.1310 C   0  0  0  0  0  0  0  0  0  0  0  0
    0.9114   -0.4900   10.5521 C   0  0  0  0  0  0  0  0  0  0  0  0
    1.7872    0.1338   11.4209 C   0  0  0  0  0  0  0  0  0  0  0  0
    1.5221    1.4146   11.8683 C   0  0  0  0  0  0  0  0  0  0  0  0
    2.4766    2.0945   12.8158 C   0  0  1  0  0  0  0  0  0  0  0  0
    3.4369    2.8006   12.0835 F   0  0  0  0  0  0  0  0  0  0  0  0
    1.7688    2.9816   13.6339 F   0  0  0  0  0  0  0  0  0  0  0  0
    3.1101    1.1323   13.6097 F   0  0  0  0  0  0  0  0  0  0  0  0
    0.3818    2.0721   11.4460 C   0  0  0  0  0  0  0  0  0  0  0  0
   -0.4920    1.4497   10.5742 C   0  0  0  0  0  0  0  0  0  0  0  0
   -0.0118    0.3703    5.0408 C   0  0  1  0  0  0  0  0  0  0  0  0
    0.5682   -0.4158    3.8023 C   0  0  2  0  0  0  0  0  0  0  0  0
    1.5781   -0.8174    3.8866 H   0  0  0  0  0  0  0  0  0  0  0  0
    1.0047    1.8421    0.0024 H   0  0  0  0  0  0  0  0  0  0  0  0
   -0.5450    1.8259   -0.8730 H   0  0  0  0  0  0  0  0  0  0  0  0
   -0.5280    1.8163    0.9069 H   0  0  0  0  0  0  0  0  0  0  0  0
    1.7123   -0.1005   -1.2143 H   0  0  0  0  0  0  0  0  0  0  0  0
    0.7044   -1.5677   -1.2126 H   0  0  0  0  0  0  0  0  0  0  0  0
    0.1625   -0.1167   -2.0897 H   0  0  0  0  0  0  0  0  0  0  0  0
    0.8051   -1.5756    1.1418 H   0  0  0  0  0  0  0  0  0  0  0  0
    1.7055   -0.0428    1.2310 H   0  0  0  0  0  0  0  0  0  0  0  0
   -2.4291   -0.1251    3.8450 H   0  0  0  0  0  0  0  0  0  0  0  0
   -2.3980   -1.8098    4.4511 H   0  0  0  0  0  0  0  0  0  0  0  0
   -0.0216    0.3398    7.6254 H   0  0  0  0  0  0  0  0  0  0  0  0
   -2.1953   -0.1466    9.3616 H   0  0  0  0  0  0  0  0  0  0  0  0
   -1.1541   -1.5901    9.3485 H   0  0  0  0  0  0  0  0  0  0  0  0
    1.1185   -1.4906   10.2027 H   0  0  0  0  0  0  0  0  0  0  0  0
    2.6783   -0.3797   11.7505 H   0  0  0  0  0  0  0  0  0  0  0  0
    0.1749    3.0729   11.7952 H   0  0  0  0  0  0  0  0  0  0  0  0
   -1.3830    1.9634   10.2443 H   0  0  0  0  0  0  0  0  0  0  0  0
   -0.3565    1.3616    4.7467 H   0  0  0  0  0  0  0  0  0  0  0  0
    0.7471    0.4463    5.8195 H   0  0  0  0  0  0  0  0  0  0  0  0
  1  2  1  0
  1 29  1  6
  1 30  1  0
  1 31  1  0
  2  3  1  1
  2  4  1  0
  2  5  1  0
  4 32  1  6
  4 33  1  0
  4 34  1  0
  5  6  1  0
  5 35  1  6
  5 36  1  0
  6  7  1  6
  6 27  1  0
  6  8  1  0
  8  9  1  6
  8 27  1  0
  8 10  1  0
 10 11  1  0
 10 37  1  6
 10 38  1  0
 11 12  1  0
 11 26  1  0
 12 13  2  0
 12 14  1  0
 14 15  1  0
 14 39  1  0
 15 16  1  0
 15 40  1  1
 15 41  1  0
 16 25  2  0
 16 17  1  0
 17 18  2  0
 17 42  1  0
 18 19  1  0
 18 43  1  0
 19 20  1  0
 19 24  2  0
 20 21  1  6
 20 22  1  0
 20 23  1  0
 24 25  1  0
 24 44  1  0
 25 45  1  0
 26 27  1  0
 26 46  1  6
 26 47  1  0
 27 28  1  6
M  CHG  1   2   1
M  END
$$$$
