ZINC000009478178
     RDKit          3D

 52 54  0  0  1  0  0  0  0  0999 V2000
   -0.0187    1.5258    0.0104 C   0  0  1  0  0  0  0  0  0  0  0  0
    0.0021   -0.0041    0.0020 C   0  0  1  0  0  0  0  0  0  0  0  0
    0.5293   -0.3651    0.8851 H   0  0  0  0  0  0  0  0  0  0  0  0
   -1.3601   -0.5067    0.0123 O   0  0  0  0  0  0  0  0  0  0  0  0
   -1.9204   -0.7240    1.2126 C   0  0  0  0  0  0  0  0  0  0  0  0
   -1.2934   -0.5017    2.2212 O   0  0  0  0  0  0  0  0  0  0  0  0
   -3.3315   -1.2453    1.3021 C   0  0  1  0  0  0  0  0  0  0  0  0
   -3.4192   -2.6025    0.6003 C   0  0  1  0  0  0  0  0  0  0  0  0
   -4.8621   -3.1132    0.6632 C   0  0  1  0  0  0  0  0  0  0  0  0
   -5.2969   -3.1303    2.0665 N   0  0  0  0  0  0  0  0  0  0  0  0
   -5.9170   -4.5098    2.7409 S   0  0  1  0  0  0  0  0  0  0  0  0
   -6.7204   -4.0946    3.8370 O   0  0  0  0  0  0  0  0  0  0  0  0
   -6.4149   -5.2936    1.6652 O   0  0  0  0  0  0  0  0  0  0  0  0
   -4.5653   -5.4081    3.4270 C   0  0  0  0  0  0  0  0  0  0  0  0
   -3.8853   -6.3305    2.6544 C   0  0  0  0  0  0  0  0  0  0  0  0
   -2.8247   -7.0353    3.1927 C   0  0  0  0  0  0  0  0  0  0  0  0
   -2.4441   -6.8172    4.5034 C   0  0  0  0  0  0  0  0  0  0  0  0
   -3.1238   -5.8938    5.2760 C   0  0  0  0  0  0  0  0  0  0  0  0
   -2.7092   -5.6563    6.7053 C   0  0  1  0  0  0  0  0  0  0  0  0
   -1.6227   -6.4800    7.0187 F   0  0  0  0  0  0  0  0  0  0  0  0
   -2.3408   -4.3165    6.8675 F   0  0  0  0  0  0  0  0  0  0  0  0
   -3.7793   -5.9520    7.5565 F   0  0  0  0  0  0  0  0  0  0  0  0
   -4.1814   -5.1861    4.7365 C   0  0  0  0  0  0  0  0  0  0  0  0
   -5.1707   -1.9004    2.8603 C   0  0  1  0  0  0  0  0  0  0  0  0
   -3.7243   -1.4033    2.7728 C   0  0  1  0  0  0  0  0  0  0  0  0
    0.7074   -0.4901   -1.2379 C   0  0  0  0  0  0  0  0  0  0  0  0
    0.0371   -0.5213   -2.4465 C   0  0  0  0  0  0  0  0  0  0  0  0
    0.6829   -0.9668   -3.5842 C   0  0  0  0  0  0  0  0  0  0  0  0
    2.0020   -1.3815   -3.5133 C   0  0  0  0  0  0  0  0  0  0  0  0
    2.6345   -1.8168   -4.6249 F   0  0  0  0  0  0  0  0  0  0  0  0
    2.6726   -1.3493   -2.3023 C   0  0  0  0  0  0  0  0  0  0  0  0
    2.0262   -0.8989   -1.1669 C   0  0  0  0  0  0  0  0  0  0  0  0
    1.0039    1.9031    0.0027 H   0  0  0  0  0  0  0  0  0  0  0  0
   -0.5459    1.8868   -0.8726 H   0  0  0  0  0  0  0  0  0  0  0  0
   -0.5289    1.8773    0.9072 H   0  0  0  0  0  0  0  0  0  0  0  0
   -4.0098   -0.5423    0.8186 H   0  0  0  0  0  0  0  0  0  0  0  0
   -3.1168   -2.4937   -0.4412 H   0  0  0  0  0  0  0  0  0  0  0  0
   -2.7597   -3.3130    1.0987 H   0  0  0  0  0  0  0  0  0  0  0  0
   -5.5094   -2.4511    0.0881 H   0  0  0  0  0  0  0  0  0  0  0  0
   -4.9109   -4.1219    0.2532 H   0  0  0  0  0  0  0  0  0  0  0  0
   -4.1826   -6.5009    1.6302 H   0  0  0  0  0  0  0  0  0  0  0  0
   -2.2937   -7.7566    2.5892 H   0  0  0  0  0  0  0  0  0  0  0  0
   -1.6161   -7.3683    4.9242 H   0  0  0  0  0  0  0  0  0  0  0  0
   -4.7123   -4.4648    5.3401 H   0  0  0  0  0  0  0  0  0  0  0  0
   -5.8432   -1.1394    2.4644 H   0  0  0  0  0  0  0  0  0  0  0  0
   -5.4232   -2.1089    3.8999 H   0  0  0  0  0  0  0  0  0  0  0  0
   -3.0620   -2.1251    3.2507 H   0  0  0  0  0  0  0  0  0  0  0  0
   -3.6392   -0.4409    3.2775 H   0  0  0  0  0  0  0  0  0  0  0  0
   -0.9919   -0.1978   -2.5015 H   0  0  0  0  0  0  0  0  0  0  0  0
    0.1587   -0.9918   -4.5281 H   0  0  0  0  0  0  0  0  0  0  0  0
    3.7014   -1.6728   -2.2457 H   0  0  0  0  0  0  0  0  0  0  0  0
    2.5491   -0.8734   -0.2223 H   0  0  0  0  0  0  0  0  0  0  0  0
  1  2  1  0
  1 33  1  6
  1 34  1  0
  1 35  1  0
  2  3  1  1
  2  4  1  0
  2 26  1  0
  4  5  1  0
  5  6  2  0
  5  7  1  0
  7 25  1  0
  7  8  1  0
  7 36  1  6
  8  9  1  0
  8 37  1  6
  8 38  1  0
  9 10  1  0
  9 39  1  6
  9 40  1  0
 11 10  1  6
 10 24  1  0
 11 12  2  0
 11 13  2  0
 11 14  1  0
 14 23  2  0
 14 15  1  0
 15 16  2  0
 15 41  1  0
 16 17  1  0
 16 42  1  0
 17 18  2  0
 17 43  1  0
 18 19  1  0
 18 23  1  0
 19 20  1  1
 19 21  1  0
 19 22  1  0
 23 44  1  0
 24 25  1  0
 24 45  1  6
 24 46  1  0
 25 47  1  1
 25 48  1  0
 26 32  2  0
 26 27  1  0
 27 28  2  0
 27 49  1  0
 28 29  1  0
 28 50  1  0
 29 30  1  0
 29 31  2  0
 31 32  1  0
 31 51  1  0
 32 52  1  0
M  END
$$$$
