ZINC000001138719
     RDKit          3D

 54 56  0  0  1  0  0  0  0  0999 V2000
   -3.5573   -9.2275   -0.1152 C   0  0  1  0  0  0  0  0  0  0  0  0
   -2.6433   -8.0297   -0.0861 C   0  0  0  0  0  0  0  0  0  0  0  0
   -2.3108   -7.4430    1.1206 C   0  0  0  0  0  0  0  0  0  0  0  0
   -1.4724   -6.3443    1.1473 C   0  0  0  0  0  0  0  0  0  0  0  0
   -0.9661   -5.8324   -0.0328 C   0  0  0  0  0  0  0  0  0  0  0  0
    0.1021   -4.4316    0.0011 S   0  0  1  0  0  0  0  0  0  0  0  0
   -0.0100   -3.8105   -1.2720 O   0  0  0  0  0  0  0  0  0  0  0  0
   -0.1625   -3.7546    1.2222 O   0  0  0  0  0  0  0  0  0  0  0  0
    1.6536   -5.0006    0.1087 N   0  0  0  0  0  0  0  0  0  0  0  0
    2.2155   -5.3532    1.4149 C   0  0  1  0  0  0  0  0  0  0  0  0
    2.0396   -6.8305    1.6553 C   0  0  0  0  0  0  0  0  0  0  0  0
    1.4981   -7.5208    0.8179 O   0  0  0  0  0  0  0  0  0  0  0  0
    2.4840   -7.3845    2.8007 N   0  0  0  0  0  0  0  0  0  0  0  0
    2.3129   -8.8206    3.0344 C   0  0  1  0  0  0  0  0  0  0  0  0
    2.8998   -9.1888    4.3985 C   0  0  1  0  0  0  0  0  0  0  0  0
    2.4009   -8.6273    5.1884 H   0  0  0  0  0  0  0  0  0  0  0  0
    2.7604  -10.7113    4.6507 C   0  0  1  0  0  0  0  0  0  0  0  0
    3.9142  -10.9493    5.6627 C   0  0  1  0  0  0  0  0  0  0  0  0
    4.9819   -9.9416    5.1852 C   0  0  1  0  0  0  0  0  0  0  0  0
    4.3127   -8.9309    4.4195 O   0  0  0  0  0  0  0  0  0  0  0  0
    2.4641   -5.1515   -1.1023 C   0  0  1  0  0  0  0  0  0  0  0  0
    3.3251   -3.9284   -1.2860 C   0  0  0  0  0  0  0  0  0  0  0  0
    2.8963   -2.8976   -2.1012 C   0  0  0  0  0  0  0  0  0  0  0  0
    3.6855   -1.7755   -2.2697 C   0  0  0  0  0  0  0  0  0  0  0  0
    4.9045   -1.6840   -1.6225 C   0  0  0  0  0  0  0  0  0  0  0  0
    5.9844   -0.1487   -1.8521 Br  0  0  0  0  0  0  0  0  0  0  0  0
    5.3332   -2.7156   -0.8068 C   0  0  0  0  0  0  0  0  0  0  0  0
    4.5410   -3.8351   -0.6348 C   0  0  0  0  0  0  0  0  0  0  0  0
   -1.2974   -6.4199   -1.2394 C   0  0  0  0  0  0  0  0  0  0  0  0
   -2.1328   -7.5210   -1.2658 C   0  0  0  0  0  0  0  0  0  0  0  0
   -2.9643  -10.1389   -0.0387 H   0  0  0  0  0  0  0  0  0  0  0  0
   -4.2521   -9.1747    0.7229 H   0  0  0  0  0  0  0  0  0  0  0  0
   -4.1164   -9.2352   -1.0508 H   0  0  0  0  0  0  0  0  0  0  0  0
   -2.7064   -7.8429    2.0426 H   0  0  0  0  0  0  0  0  0  0  0  0
   -1.2132   -5.8855    2.0900 H   0  0  0  0  0  0  0  0  0  0  0  0
    3.2770   -5.1062    1.4324 H   0  0  0  0  0  0  0  0  0  0  0  0
    1.6994   -4.7941    2.1954 H   0  0  0  0  0  0  0  0  0  0  0  0
    2.9171   -6.8324    3.4704 H   0  0  0  0  0  0  0  0  0  0  0  0
    1.2514   -9.0677    3.0169 H   0  0  0  0  0  0  0  0  0  0  0  0
    2.8290   -9.3797    2.2539 H   0  0  0  0  0  0  0  0  0  0  0  0
    1.7935  -10.9491    5.0943 H   0  0  0  0  0  0  0  0  0  0  0  0
    2.9196  -11.2777    3.7331 H   0  0  0  0  0  0  0  0  0  0  0  0
    3.5923  -10.7210    6.6787 H   0  0  0  0  0  0  0  0  0  0  0  0
    4.2867  -11.9713    5.5930 H   0  0  0  0  0  0  0  0  0  0  0  0
    5.4726   -9.4872    6.0459 H   0  0  0  0  0  0  0  0  0  0  0  0
    5.7189  -10.4504    4.5638 H   0  0  0  0  0  0  0  0  0  0  0  0
    3.0994   -6.0321   -1.0069 H   0  0  0  0  0  0  0  0  0  0  0  0
    1.8091   -5.2678   -1.9657 H   0  0  0  0  0  0  0  0  0  0  0  0
    1.9447   -2.9693   -2.6069 H   0  0  0  0  0  0  0  0  0  0  0  0
    3.3505   -0.9703   -2.9069 H   0  0  0  0  0  0  0  0  0  0  0  0
    6.2849   -2.6446   -0.3012 H   0  0  0  0  0  0  0  0  0  0  0  0
    4.8756   -4.6407    0.0020 H   0  0  0  0  0  0  0  0  0  0  0  0
   -0.9015   -6.0202   -2.1614 H   0  0  0  0  0  0  0  0  0  0  0  0
   -2.3916   -7.9800   -2.2085 H   0  0  0  0  0  0  0  0  0  0  0  0
  1  2  1  0
  1 31  1  1
  1 32  1  0
  1 33  1  0
  2 30  2  0
  2  3  1  0
  3  4  2  0
  3 34  1  0
  4  5  1  0
  4 35  1  0
  5  6  1  0
  5 29  2  0
  6  7  2  0
  6  8  2  0
  6  9  1  1
  9 10  1  0
  9 21  1  0
 10 11  1  0
 10 36  1  6
 10 37  1  0
 11 12  2  0
 11 13  1  0
 13 14  1  0
 13 38  1  0
 14 15  1  0
 14 39  1  1
 14 40  1  0
 15 16  1  1
 15 20  1  0
 15 17  1  0
 17 18  1  0
 17 41  1  1
 17 42  1  0
 18 19  1  0
 18 43  1  1
 18 44  1  0
 19 20  1  0
 19 45  1  1
 19 46  1  0
 21 22  1  0
 21 47  1  1
 21 48  1  0
 22 28  2  0
 22 23  1  0
 23 24  2  0
 23 49  1  0
 24 25  1  0
 24 50  1  0
 25 26  1  0
 25 27  2  0
 27 28  1  0
 27 51  1  0
 28 52  1  0
 29 30  1  0
 29 53  1  0
 30 54  1  0
M  END
$$$$
