ZINC000575607637
     RDKit          3D

 46 48  0  0  1  0  0  0  0  0999 V2000
   -0.0173    1.4248    0.0099 C   0  0  1  0  0  0  0  0  0  0  0  0
    0.0021   -0.0041    0.0020 O   0  0  0  0  0  0  0  0  0  0  0  0
    0.6518   -0.5703   -1.1379 C   0  0  1  0  0  0  0  0  0  0  0  0
    2.1395   -0.7672   -0.8335 C   0  0  1  0  0  0  0  0  0  0  0  0
    2.8176   -1.4296   -2.0350 C   0  0  1  0  0  0  0  0  0  0  0  0
    2.1796   -2.7241   -2.3065 N   0  0  0  0  0  0  0  0  0  0  0  0
    2.8931   -3.4508   -3.3652 C   0  0  1  0  0  0  0  0  0  0  0  0
    3.9602   -4.4263   -2.8363 C   0  0  1  0  0  0  0  0  0  0  0  0
    3.4627   -5.3671   -3.8587 N   0  0  0  0  0  0  0  0  0  0  0  0
    4.1177   -6.6554   -4.6671 S   0  0  1  0  0  0  0  0  0  0  0  0
    3.3740   -6.7946   -5.8700 O   0  0  0  0  0  0  0  0  0  0  0  0
    5.5265   -6.4712   -4.6413 O   0  0  0  0  0  0  0  0  0  0  0  0
    3.7866   -8.0960   -3.7080 C   0  0  0  0  0  0  0  0  0  0  0  0
    4.6850   -8.5030   -2.7395 C   0  0  0  0  0  0  0  0  0  0  0  0
    4.4253   -9.6331   -1.9870 C   0  0  0  0  0  0  0  0  0  0  0  0
    3.2670  -10.3560   -2.2028 C   0  0  0  0  0  0  0  0  0  0  0  0
    2.9841  -11.5884   -1.3829 C   0  0  1  0  0  0  0  0  0  0  0  0
    2.2688  -11.2307   -0.2350 F   0  0  0  0  0  0  0  0  0  0  0  0
    2.2291  -12.4897   -2.1409 F   0  0  0  0  0  0  0  0  0  0  0  0
    4.1919  -12.1888   -1.0114 F   0  0  0  0  0  0  0  0  0  0  0  0
    2.3680   -9.9483   -3.1705 C   0  0  0  0  0  0  0  0  0  0  0  0
    2.6258   -8.8160   -3.9203 C   0  0  0  0  0  0  0  0  0  0  0  0
    2.1470   -4.6987   -3.8713 C   0  0  1  0  0  0  0  0  0  0  0  0
    0.7612   -2.5558   -2.6477 C   0  0  1  0  0  0  0  0  0  0  0  0
    0.0217   -1.9271   -1.4645 C   0  0  1  0  0  0  0  0  0  0  0  0
    1.0053    1.8021    0.0021 H   0  0  0  0  0  0  0  0  0  0  0  0
   -0.5445    1.7859   -0.8732 H   0  0  0  0  0  0  0  0  0  0  0  0
   -0.5275    1.7763    0.9067 H   0  0  0  0  0  0  0  0  0  0  0  0
    0.5390    0.0986   -1.9911 H   0  0  0  0  0  0  0  0  0  0  0  0
    2.6030    0.2006   -0.6420 H   0  0  0  0  0  0  0  0  0  0  0  0
    2.2502   -1.4045    0.0438 H   0  0  0  0  0  0  0  0  0  0  0  0
    2.7184   -0.7855   -2.9087 H   0  0  0  0  0  0  0  0  0  0  0  0
    3.8741   -1.5843   -1.8160 H   0  0  0  0  0  0  0  0  0  0  0  0
    3.2489   -2.7987   -4.1627 H   0  0  0  0  0  0  0  0  0  0  0  0
    4.9837   -4.0926   -3.0073 H   0  0  0  0  0  0  0  0  0  0  0  0
    3.7846   -4.7568   -1.8126 H   0  0  0  0  0  0  0  0  0  0  0  0
    5.5900   -7.9382   -2.5709 H   0  0  0  0  0  0  0  0  0  0  0  0
    5.1276   -9.9515   -1.2308 H   0  0  0  0  0  0  0  0  0  0  0  0
    1.4628  -10.5129   -3.3388 H   0  0  0  0  0  0  0  0  0  0  0  0
    1.9234   -8.4974   -4.6763 H   0  0  0  0  0  0  0  0  0  0  0  0
    1.4388   -5.1092   -3.1516 H   0  0  0  0  0  0  0  0  0  0  0  0
    1.7228   -4.5825   -4.8687 H   0  0  0  0  0  0  0  0  0  0  0  0
    0.6717   -1.9064   -3.5185 H   0  0  0  0  0  0  0  0  0  0  0  0
    0.3242   -3.5285   -2.8737 H   0  0  0  0  0  0  0  0  0  0  0  0
    0.0991   -2.5825   -0.5971 H   0  0  0  0  0  0  0  0  0  0  0  0
   -1.0278   -1.7879   -1.7237 H   0  0  0  0  0  0  0  0  0  0  0  0
  1  2  1  0
  1 26  1  6
  1 27  1  0
  1 28  1  0
  2  3  1  0
  3 25  1  0
  3  4  1  0
  3 29  1  6
  4  5  1  0
  4 30  1  1
  4 31  1  0
  5  6  1  0
  5 32  1  6
  5 33  1  0
  6  7  1  0
  6 24  1  0
  7 23  1  0
  7  8  1  0
  7 34  1  6
  8  9  1  0
  8 35  1  1
  8 36  1  0
 10  9  1  1
  9 23  1  0
 10 11  2  0
 10 12  2  0
 10 13  1  0
 13 22  2  0
 13 14  1  0
 14 15  2  0
 14 37  1  0
 15 16  1  0
 15 38  1  0
 16 17  1  0
 16 21  2  0
 17 18  1  1
 17 19  1  0
 17 20  1  0
 21 22  1  0
 21 39  1  0
 22 40  1  0
 23 41  1  1
 23 42  1  0
 24 25  1  0
 24 43  1  6
 24 44  1  0
 25 45  1  1
 25 46  1  0
M  END
$$$$
