ZINC000020279413
     RDKit          3D

 64 66  0  0  1  0  0  0  0  0999 V2000
   -0.0187    1.5258    0.0104 C   0  0  1  0  0  0  0  0  0  0  0  0
    0.0021   -0.0041    0.0020 C   0  0  1  0  0  0  0  0  0  0  0  0
   -1.3723   -0.5112    0.0124 N   0  0  0  0  0  0  0  0  0  0  0  0
   -2.1099   -0.6542   -1.2453 C   0  0  1  0  0  0  0  0  0  0  0  0
   -1.7727   -2.0031   -1.8836 C   0  0  1  0  0  0  0  0  0  0  0  0
   -2.0922   -0.9227    1.4458 S   0  0  1  0  0  0  0  0  0  0  0  0
   -3.1196   -1.8512    1.1269 O   0  0  0  0  0  0  0  0  0  0  0  0
   -1.0393   -1.2108    2.3555 O   0  0  0  0  0  0  0  0  0  0  0  0
   -2.8978    0.5199    2.0580 C   0  0  0  0  0  0  0  0  0  0  0  0
   -2.2137    1.3940    2.8819 C   0  0  0  0  0  0  0  0  0  0  0  0
   -2.8389    2.5292    3.3664 C   0  0  0  0  0  0  0  0  0  0  0  0
   -4.1538    2.7907    3.0249 C   0  0  0  0  0  0  0  0  0  0  0  0
   -4.7833    3.9029    3.4896 O   0  0  0  0  0  0  0  0  0  0  0  0
   -5.7581    4.4972    2.6285 C   0  0  1  0  0  0  0  0  0  0  0  0
   -6.6622    3.4270    2.0719 C   0  0  0  0  0  0  0  0  0  0  0  0
   -7.8207    3.6805    1.8170 O   0  0  0  0  0  0  0  0  0  0  0  0
   -6.1769    2.1846    1.8578 N   0  0  0  0  0  0  0  0  0  0  0  0
   -7.0302    1.1417    1.2829 C   0  0  1  0  0  0  0  0  0  0  0  0
   -6.9137    1.1688   -0.2193 C   0  0  0  0  0  0  0  0  0  0  0  0
   -6.1893    1.9795   -0.7569 O   0  0  0  0  0  0  0  0  0  0  0  0
   -7.6145    0.2921   -0.9655 N   0  0  0  0  0  0  0  0  0  0  0  0
   -7.5013    0.3185   -2.4259 C   0  0  2  0  0  0  0  0  0  0  0  0
   -6.4821    0.5841   -2.7066 H   0  0  0  0  0  0  0  0  0  0  0  0
   -8.4733    1.3545   -2.9941 C   0  0  1  0  0  0  0  0  0  0  0  0
   -7.8418   -1.0629   -2.9888 C   0  0  1  0  0  0  0  0  0  0  0  0
   -6.7961   -2.0766   -2.5200 C   0  0  1  0  0  0  0  0  0  0  0  0
   -7.1315   -3.4371   -3.0745 C   0  0  0  0  0  0  0  0  0  0  0  0
   -7.9506   -4.2917   -2.3606 C   0  0  0  0  0  0  0  0  0  0  0  0
   -8.2583   -5.5397   -2.8692 C   0  0  0  0  0  0  0  0  0  0  0  0
   -7.7471   -5.9330   -4.0919 C   0  0  0  0  0  0  0  0  0  0  0  0
   -6.9286   -5.0781   -4.8062 C   0  0  0  0  0  0  0  0  0  0  0  0
   -6.6245   -3.8284   -4.2995 C   0  0  0  0  0  0  0  0  0  0  0  0
   -4.8442    1.9085    2.1946 C   0  0  0  0  0  0  0  0  0  0  0  0
   -4.2112    0.7772    1.7081 C   0  0  0  0  0  0  0  0  0  0  0  0
    1.0039    1.9031    0.0027 H   0  0  0  0  0  0  0  0  0  0  0  0
   -0.5459    1.8868   -0.8726 H   0  0  0  0  0  0  0  0  0  0  0  0
   -0.5289    1.8773    0.9072 H   0  0  0  0  0  0  0  0  0  0  0  0
    0.5123   -0.3556   -0.8948 H   0  0  0  0  0  0  0  0  0  0  0  0
    0.5293   -0.3651    0.8851 H   0  0  0  0  0  0  0  0  0  0  0  0
   -3.1804   -0.6037   -1.0465 H   0  0  0  0  0  0  0  0  0  0  0  0
   -1.8283    0.1500   -1.9251 H   0  0  0  0  0  0  0  0  0  0  0  0
   -2.3215   -2.1096   -2.8194 H   0  0  0  0  0  0  0  0  0  0  0  0
   -0.7022   -2.0536   -2.0825 H   0  0  0  0  0  0  0  0  0  0  0  0
   -2.0544   -2.8073   -1.2038 H   0  0  0  0  0  0  0  0  0  0  0  0
   -1.1873    1.1898    3.1487 H   0  0  0  0  0  0  0  0  0  0  0  0
   -2.3015    3.2097    4.0103 H   0  0  0  0  0  0  0  0  0  0  0  0
   -6.3516    5.2157    3.1938 H   0  0  0  0  0  0  0  0  0  0  0  0
   -5.2541    5.0089    1.8086 H   0  0  0  0  0  0  0  0  0  0  0  0
   -6.7131    0.1672    1.6544 H   0  0  0  0  0  0  0  0  0  0  0  0
   -8.0663    1.3205    1.5703 H   0  0  0  0  0  0  0  0  0  0  0  0
   -8.1939   -0.3563   -0.5356 H   0  0  0  0  0  0  0  0  0  0  0  0
   -9.4925    1.0889   -2.7134 H   0  0  0  0  0  0  0  0  0  0  0  0
   -8.2307    2.3386   -2.5931 H   0  0  0  0  0  0  0  0  0  0  0  0
   -8.3890    1.3741   -4.0807 H   0  0  0  0  0  0  0  0  0  0  0  0
   -8.8268   -1.3668   -2.6347 H   0  0  0  0  0  0  0  0  0  0  0  0
   -7.8443   -1.0208   -4.0780 H   0  0  0  0  0  0  0  0  0  0  0  0
   -5.8111   -1.7726   -2.8742 H   0  0  0  0  0  0  0  0  0  0  0  0
   -6.7936   -2.1186   -1.4308 H   0  0  0  0  0  0  0  0  0  0  0  0
   -8.3500   -3.9844   -1.4054 H   0  0  0  0  0  0  0  0  0  0  0  0
   -8.8977   -6.2076   -2.3112 H   0  0  0  0  0  0  0  0  0  0  0  0
   -7.9868   -6.9083   -4.4889 H   0  0  0  0  0  0  0  0  0  0  0  0
   -6.5289   -5.3855   -5.7612 H   0  0  0  0  0  0  0  0  0  0  0  0
   -5.9850   -3.1605   -4.8576 H   0  0  0  0  0  0  0  0  0  0  0  0
   -4.7425    0.0956    1.0605 H   0  0  0  0  0  0  0  0  0  0  0  0
  1  2  1  0
  1 35  1  6
  1 36  1  0
  1 37  1  0
  2  3  1  0
  2 38  1  6
  2 39  1  0
  3  4  1  0
  6  3  1  6
  4  5  1  0
  4 40  1  1
  4 41  1  0
  5 42  1  6
  5 43  1  0
  5 44  1  0
  6  7  2  0
  6  8  2  0
  6  9  1  0
  9 34  2  0
  9 10  1  0
 10 11  2  0
 10 45  1  0
 11 12  1  0
 11 46  1  0
 12 33  2  0
 12 13  1  0
 13 14  1  0
 14 15  1  0
 14 47  1  1
 14 48  1  0
 15 16  2  0
 15 17  1  0
 17 18  1  0
 17 33  1  0
 18 19  1  0
 18 49  1  1
 18 50  1  0
 19 20  2  0
 19 21  1  0
 21 22  1  0
 21 51  1  0
 22 23  1  1
 22 24  1  0
 22 25  1  0
 24 52  1  6
 24 53  1  0
 24 54  1  0
 25 26  1  0
 25 55  1  1
 25 56  1  0
 26 27  1  0
 26 57  1  6
 26 58  1  0
 27 32  2  0
 27 28  1  0
 28 29  2  0
 28 59  1  0
 29 30  1  0
 29 60  1  0
 30 31  2  0
 30 61  1  0
 31 32  1  0
 31 62  1  0
 32 63  1  0
 33 34  1  0
 34 64  1  0
M  END
$$$$
