ZINC000020069904
     RDKit          3D

 47 49  0  0  1  0  0  0  0  0999 V2000
    0.0021   -0.0041    0.0020 O   0  0  0  0  0  0  0  0  0  0  0  0
   -0.0144    1.2086    0.0087 C   0  0  0  0  0  0  0  0  0  0  0  0
    1.1435    1.8983    0.0013 N   0  0  0  0  0  0  0  0  0  0  0  0
    2.4220    1.1832   -0.0147 C   0  0  2  0  0  0  0  0  0  0  0  0
    2.5831    0.3433    1.2540 C   0  0  1  0  0  0  0  0  0  0  0  0
    1.5516   -0.5992    1.3235 F   0  0  0  0  0  0  0  0  0  0  0  0
    3.8164   -0.3165    1.2230 F   0  0  0  0  0  0  0  0  0  0  0  0
    2.5288    1.1777    2.3756 F   0  0  0  0  0  0  0  0  0  0  0  0
    3.5427    2.1281   -0.1603 N   0  0  0  0  0  0  0  0  0  0  0  0
    4.1664    1.8112   -1.3094 C   0  0  0  0  0  0  0  0  0  0  0  0
    5.1419    2.3994   -1.7331 O   0  0  0  0  0  0  0  0  0  0  0  0
    3.5929    0.7761   -1.9335 N   0  0  0  0  0  0  0  0  0  0  0  0
    4.0633    0.2175   -3.2035 C   0  0  1  0  0  0  0  0  0  0  0  0
    5.0714   -0.8692   -2.9316 C   0  0  0  0  0  0  0  0  0  0  0  0
    6.4143   -0.5568   -2.8311 C   0  0  0  0  0  0  0  0  0  0  0  0
    7.3390   -1.5535   -2.5817 C   0  0  0  0  0  0  0  0  0  0  0  0
    6.9208   -2.8626   -2.4323 C   0  0  0  0  0  0  0  0  0  0  0  0
    5.5779   -3.1749   -2.5318 C   0  0  0  0  0  0  0  0  0  0  0  0
    4.6527   -2.1775   -2.7770 C   0  0  0  0  0  0  0  0  0  0  0  0
    2.5293    0.3103   -1.2493 C   0  0  0  0  0  0  0  0  0  0  0  0
    1.8089   -0.6150   -1.5568 O   0  0  0  0  0  0  0  0  0  0  0  0
   -1.3296    1.9443    0.0189 C   0  0  1  0  0  0  0  0  0  0  0  0
   -1.4285    2.8295   -1.2251 C   0  0  1  0  0  0  0  0  0  0  0  0
   -2.7637    3.5764   -1.2147 C   0  0  1  0  0  0  0  0  0  0  0  0
   -3.9130    2.5665   -1.2147 C   0  0  1  0  0  0  0  0  0  0  0  0
   -3.8141    1.6813    0.0293 C   0  0  1  0  0  0  0  0  0  0  0  0
   -2.4789    0.9344    0.0189 C   0  0  1  0  0  0  0  0  0  0  0  0
    1.1304    2.8682    0.0067 H   0  0  0  0  0  0  0  0  0  0  0  0
    3.7835    2.8404    0.4525 H   0  0  0  0  0  0  0  0  0  0  0  0
    3.2188   -0.1994   -3.7521 H   0  0  0  0  0  0  0  0  0  0  0  0
    4.5288    1.0048   -3.7965 H   0  0  0  0  0  0  0  0  0  0  0  0
    6.7410    0.4660   -2.9478 H   0  0  0  0  0  0  0  0  0  0  0  0
    8.3882   -1.3096   -2.5038 H   0  0  0  0  0  0  0  0  0  0  0  0
    7.6434   -3.6415   -2.2381 H   0  0  0  0  0  0  0  0  0  0  0  0
    5.2512   -4.1977   -2.4155 H   0  0  0  0  0  0  0  0  0  0  0  0
    3.6035   -2.4214   -2.8548 H   0  0  0  0  0  0  0  0  0  0  0  0
   -1.3916    2.5653    0.9126 H   0  0  0  0  0  0  0  0  0  0  0  0
   -0.6097    3.5490   -1.2250 H   0  0  0  0  0  0  0  0  0  0  0  0
   -1.3664    2.2085   -2.1187 H   0  0  0  0  0  0  0  0  0  0  0  0
   -2.8257    4.1974   -0.3210 H   0  0  0  0  0  0  0  0  0  0  0  0
   -2.8342    4.2071   -2.1009 H   0  0  0  0  0  0  0  0  0  0  0  0
   -4.8643    3.0986   -1.2073 H   0  0  0  0  0  0  0  0  0  0  0  0
   -3.8510    1.9455   -2.1084 H   0  0  0  0  0  0  0  0  0  0  0  0
   -3.8761    2.3022    0.9230 H   0  0  0  0  0  0  0  0  0  0  0  0
   -4.6329    0.9618    0.0292 H   0  0  0  0  0  0  0  0  0  0  0  0
   -2.4169    0.3134   -0.8748 H   0  0  0  0  0  0  0  0  0  0  0  0
   -2.4084    0.3037    0.9051 H   0  0  0  0  0  0  0  0  0  0  0  0
  1  2  2  0
  2  3  1  0
  2 22  1  0
  3 28  1  0
  4  3  1  1
  4 20  1  0
  4  5  1  0
  4  9  1  0
  5  6  1  1
  5  7  1  0
  5  8  1  0
  9 10  1  0
  9 29  1  0
 10 11  2  0
 10 12  1  0
 12 13  1  0
 12 20  1  0
 13 14  1  0
 13 30  1  6
 13 31  1  0
 14 19  2  0
 14 15  1  0
 15 16  2  0
 15 32  1  0
 16 17  1  0
 16 33  1  0
 17 18  2  0
 17 34  1  0
 18 19  1  0
 18 35  1  0
 19 36  1  0
 20 21  2  0
 22 27  1  0
 22 23  1  0
 22 37  1  1
 23 24  1  0
 23 38  1  6
 23 39  1  0
 24 25  1  0
 24 40  1  1
 24 41  1  0
 25 26  1  0
 25 42  1  1
 25 43  1  0
 26 27  1  0
 26 44  1  1
 26 45  1  0
 27 46  1  6
 27 47  1  0
M  END
$$$$
