ZINC000015386089
     RDKit          3D

 47 49  0  0  1  0  0  0  0  0999 V2000
   -0.0187    1.5258    0.0104 C   0  0  1  0  0  0  0  0  0  0  0  0
    0.0021   -0.0041    0.0020 C   0  0  2  0  0  0  0  0  0  0  0  0
    0.0748   -0.4678   -0.9817 H   0  0  0  0  0  0  0  0  0  0  0  0
   -0.8275   -0.7277    1.0646 C   0  0  1  0  0  0  0  0  0  0  0  0
    0.6996   -0.7075    1.1680 C   0  0  1  0  0  0  0  0  0  0  0  0
    1.1434   -0.0805    1.9413 H   0  0  0  0  0  0  0  0  0  0  0  0
    1.4342   -1.9890    0.8692 C   0  0  0  0  0  0  0  0  0  0  0  0
    1.4566   -2.4255   -0.2621 O   0  0  0  0  0  0  0  0  0  0  0  0
    2.0663   -2.6500    1.8592 N   0  0  0  0  0  0  0  0  0  0  0  0
    2.0424   -2.1361    3.2358 C   0  0  1  0  0  0  0  0  0  0  0  0
    1.5002   -3.2339    4.1594 C   0  0  1  0  0  0  0  0  0  0  0  0
    2.2252   -4.4817    3.8817 N   0  0  0  0  0  0  0  0  0  0  0  0
    3.0009   -5.2944    5.0983 S   0  0  1  0  0  0  0  0  0  0  0  0
    4.0122   -6.0762    4.4774 O   0  0  0  0  0  0  0  0  0  0  0  0
    3.2719   -4.3361    6.1119 O   0  0  0  0  0  0  0  0  0  0  0  0
    1.8443   -6.4321    5.7857 C   0  0  0  0  0  0  0  0  0  0  0  0
    1.0321   -6.0432    6.8345 C   0  0  0  0  0  0  0  0  0  0  0  0
    0.1247   -6.9357    7.3737 C   0  0  0  0  0  0  0  0  0  0  0  0
   -0.7604   -6.5119    8.5174 C   0  0  1  0  0  0  0  0  0  0  0  0
   -1.9477   -5.9710    8.0125 F   0  0  0  0  0  0  0  0  0  0  0  0
   -1.0560   -7.6227    9.3148 F   0  0  0  0  0  0  0  0  0  0  0  0
   -0.0991   -5.5484    9.2866 F   0  0  0  0  0  0  0  0  0  0  0  0
    0.0289   -8.2170    6.8637 C   0  0  0  0  0  0  0  0  0  0  0  0
    0.8408   -8.6058    5.8146 C   0  0  0  0  0  0  0  0  0  0  0  0
    0.7367  -10.0027    5.2588 C   0  0  1  0  0  0  0  0  0  0  0  0
   -0.2427  -10.7125    5.9619 F   0  0  0  0  0  0  0  0  0  0  0  0
    0.3870   -9.9413    3.9056 F   0  0  0  0  0  0  0  0  0  0  0  0
    1.9691  -10.6510    5.3931 F   0  0  0  0  0  0  0  0  0  0  0  0
    1.7452   -7.7119    5.2725 C   0  0  0  0  0  0  0  0  0  0  0  0
    2.2491   -4.9956    2.5050 C   0  0  1  0  0  0  0  0  0  0  0  0
    2.7866   -3.9007    1.5825 C   0  0  1  0  0  0  0  0  0  0  0  0
    1.0039    1.9031    0.0027 H   0  0  0  0  0  0  0  0  0  0  0  0
   -0.5459    1.8868   -0.8726 H   0  0  0  0  0  0  0  0  0  0  0  0
   -0.5289    1.8773    0.9072 H   0  0  0  0  0  0  0  0  0  0  0  0
   -1.3881   -0.1139    1.7696 H   0  0  0  0  0  0  0  0  0  0  0  0
   -1.3003   -1.6677    0.7800 H   0  0  0  0  0  0  0  0  0  0  0  0
    3.0527   -1.8656    3.5430 H   0  0  0  0  0  0  0  0  0  0  0  0
    1.3948   -1.2609    3.2884 H   0  0  0  0  0  0  0  0  0  0  0  0
    1.6532   -2.9456    5.1994 H   0  0  0  0  0  0  0  0  0  0  0  0
    0.4366   -3.3789    3.9701 H   0  0  0  0  0  0  0  0  0  0  0  0
    1.1067   -5.0421    7.2327 H   0  0  0  0  0  0  0  0  0  0  0  0
   -0.6800   -8.9143    7.2850 H   0  0  0  0  0  0  0  0  0  0  0  0
    2.3795   -8.0156    4.4529 H   0  0  0  0  0  0  0  0  0  0  0  0
    2.8967   -5.8708    2.4524 H   0  0  0  0  0  0  0  0  0  0  0  0
    1.2388   -5.2660    2.1979 H   0  0  0  0  0  0  0  0  0  0  0  0
    2.6330   -4.1903    0.5429 H   0  0  0  0  0  0  0  0  0  0  0  0
    3.8501   -3.7535    1.7705 H   0  0  0  0  0  0  0  0  0  0  0  0
  1  2  1  0
  1 32  1  6
  1 33  1  0
  1 34  1  0
  2  3  1  6
  2  5  1  0
  2  4  1  0
  4  5  1  0
  4 35  1  1
  4 36  1  0
  5  6  1  1
  5  7  1  0
  7  8  2  0
  7  9  1  0
  9 31  1  0
  9 10  1  0
 10 11  1  0
 10 37  1  1
 10 38  1  0
 11 12  1  0
 11 39  1  1
 11 40  1  0
 13 12  1  6
 12 30  1  0
 13 14  2  0
 13 15  2  0
 13 16  1  0
 16 29  2  0
 16 17  1  0
 17 18  2  0
 17 41  1  0
 18 19  1  0
 18 23  1  0
 19 20  1  6
 19 21  1  0
 19 22  1  0
 23 24  2  0
 23 42  1  0
 24 25  1  0
 24 29  1  0
 25 26  1  1
 25 27  1  0
 25 28  1  0
 29 43  1  0
 30 31  1  0
 30 44  1  1
 30 45  1  0
 31 46  1  6
 31 47  1  0
M  END
$$$$
