ZINC000006325645
     RDKit          3D

 55 56  0  0  0  0  0  0  0  0999 V2000
   -0.0187    1.5258    0.0104 C   0  0  1  0  0  0  0  0  0  0  0  0
    0.0021   -0.0041    0.0020 C   0  0  1  0  0  0  0  0  0  0  0  0
    0.7421   -0.5109    1.2415 C   0  0  1  0  0  0  0  0  0  0  0  0
   -1.4333   -0.5336    0.0129 C   0  0  1  0  0  0  0  0  0  0  0  0
   -2.1352   -0.1312   -1.2857 C   0  0  1  0  0  0  0  0  0  0  0  0
   -3.5096   -0.6383   -1.2753 N   0  0  0  0  0  0  0  0  0  0  0  0
   -4.3226   -0.4031   -2.3242 C   0  0  0  0  0  0  0  0  0  0  0  0
   -3.9164    0.2284   -3.2766 O   0  0  0  0  0  0  0  0  0  0  0  0
   -5.7365   -0.9247   -2.3135 C   0  0  1  0  0  0  0  0  0  0  0  0
   -6.4086   -0.5394   -3.5569 N   0  0  0  0  0  0  0  0  0  0  0  0
   -6.2612   -1.3676   -4.7562 C   0  0  1  0  0  0  0  0  0  0  0  0
   -7.2895   -2.5001   -4.7235 C   0  0  1  0  0  0  0  0  0  0  0  0
   -7.1379   -3.3521   -5.9573 C   0  0  0  0  0  0  0  0  0  0  0  0
   -7.8489   -3.0435   -7.1019 C   0  0  0  0  0  0  0  0  0  0  0  0
   -7.7098   -3.8251   -8.2336 C   0  0  0  0  0  0  0  0  0  0  0  0
   -6.8595   -4.9148   -8.2209 C   0  0  0  0  0  0  0  0  0  0  0  0
   -6.1478   -5.2228   -7.0765 C   0  0  0  0  0  0  0  0  0  0  0  0
   -6.2836   -4.4388   -5.9461 C   0  0  0  0  0  0  0  0  0  0  0  0
   -7.3349    0.8324   -3.6066 S   0  0  1  0  0  0  0  0  0  0  0  0
   -8.3506    0.5959   -4.5718 O   0  0  0  0  0  0  0  0  0  0  0  0
   -7.6112    1.1791   -2.2566 O   0  0  0  0  0  0  0  0  0  0  0  0
   -6.3233    2.1216   -4.2543 C   0  0  0  0  0  0  0  0  0  0  0  0
   -5.5681    2.9029   -3.4000 C   0  0  0  0  0  0  0  0  0  0  0  0
   -4.7745    3.9143   -3.9081 C   0  0  0  0  0  0  0  0  0  0  0  0
   -4.7359    4.1441   -5.2707 C   0  0  0  0  0  0  0  0  0  0  0  0
   -5.4904    3.3621   -6.1251 C   0  0  0  0  0  0  0  0  0  0  0  0
   -6.2807    2.3479   -5.6174 C   0  0  0  0  0  0  0  0  0  0  0  0
    1.0039    1.9031    0.0027 H   0  0  0  0  0  0  0  0  0  0  0  0
   -0.5459    1.8868   -0.8726 H   0  0  0  0  0  0  0  0  0  0  0  0
   -0.5289    1.8773    0.9072 H   0  0  0  0  0  0  0  0  0  0  0  0
    0.5123   -0.3556   -0.8948 H   0  0  0  0  0  0  0  0  0  0  0  0
    0.2319   -0.1594    2.1383 H   0  0  0  0  0  0  0  0  0  0  0  0
    0.7568   -1.6008    1.2356 H   0  0  0  0  0  0  0  0  0  0  0  0
    1.7647   -0.1336    1.2338 H   0  0  0  0  0  0  0  0  0  0  0  0
   -1.4190   -1.6203    0.0965 H   0  0  0  0  0  0  0  0  0  0  0  0
   -1.9701   -0.1109    0.8621 H   0  0  0  0  0  0  0  0  0  0  0  0
   -2.1495    0.9555   -1.3693 H   0  0  0  0  0  0  0  0  0  0  0  0
   -1.5984   -0.5539   -2.1349 H   0  0  0  0  0  0  0  0  0  0  0  0
   -3.8345   -1.1433   -0.5135 H   0  0  0  0  0  0  0  0  0  0  0  0
   -5.7222   -2.0114   -2.2299 H   0  0  0  0  0  0  0  0  0  0  0  0
   -6.2733   -0.5020   -1.4642 H   0  0  0  0  0  0  0  0  0  0  0  0
   -6.4235   -0.7550   -5.6430 H   0  0  0  0  0  0  0  0  0  0  0  0
   -5.2566   -1.7897   -4.7851 H   0  0  0  0  0  0  0  0  0  0  0  0
   -7.1272   -3.1127   -3.8367 H   0  0  0  0  0  0  0  0  0  0  0  0
   -8.2940   -2.0780   -4.6946 H   0  0  0  0  0  0  0  0  0  0  0  0
   -8.5133   -2.1921   -7.1119 H   0  0  0  0  0  0  0  0  0  0  0  0
   -8.2658   -3.5844   -9.1277 H   0  0  0  0  0  0  0  0  0  0  0  0
   -6.7514   -5.5258   -9.1048 H   0  0  0  0  0  0  0  0  0  0  0  0
   -5.4837   -6.0744   -7.0664 H   0  0  0  0  0  0  0  0  0  0  0  0
   -5.7276   -4.6794   -5.0521 H   0  0  0  0  0  0  0  0  0  0  0  0
   -5.5983    2.7234   -2.3354 H   0  0  0  0  0  0  0  0  0  0  0  0
   -4.1850    4.5252   -3.2405 H   0  0  0  0  0  0  0  0  0  0  0  0
   -4.1164    4.9347   -5.6676 H   0  0  0  0  0  0  0  0  0  0  0  0
   -5.4604    3.5418   -7.1897 H   0  0  0  0  0  0  0  0  0  0  0  0
   -6.8702    1.7370   -6.2849 H   0  0  0  0  0  0  0  0  0  0  0  0
  1  2  1  0
  1 28  1  6
  1 29  1  0
  1 30  1  0
  2  3  1  0
  2  4  1  0
  2 31  1  6
  3 32  1  1
  3 33  1  0
  3 34  1  0
  4  5  1  0
  4 35  1  1
  4 36  1  0
  5  6  1  0
  5 37  1  6
  5 38  1  0
  6  7  1  0
  6 39  1  0
  7  8  2  0
  7  9  1  0
  9 10  1  0
  9 40  1  1
  9 41  1  0
 10 11  1  0
 19 10  1  1
 11 12  1  0
 11 42  1  6
 11 43  1  0
 12 13  1  0
 12 44  1  1
 12 45  1  0
 13 18  2  0
 13 14  1  0
 14 15  2  0
 14 46  1  0
 15 16  1  0
 15 47  1  0
 16 17  2  0
 16 48  1  0
 17 18  1  0
 17 49  1  0
 18 50  1  0
 19 20  2  0
 19 21  2  0
 19 22  1  0
 22 27  2  0
 22 23  1  0
 23 24  2  0
 23 51  1  0
 24 25  1  0
 24 52  1  0
 25 26  2  0
 25 53  1  0
 26 27  1  0
 26 54  1  0
 27 55  1  0
M  END
$$$$
