ZINC000065225071
     RDKit          3D

 49 52  0  0  1  0  0  0  0  0999 V2000
    1.0456    1.7908   -0.1255 O   0  0  0  0  0  0  0  0  0  0  0  0
   -0.0144    1.2113    0.0087 C   0  0  0  0  0  0  0  0  0  0  0  0
   -0.0588   -0.2661   -0.0254 C   0  0  0  0  0  0  0  0  0  0  0  0
   -1.1610   -0.9217   -0.5763 C   0  0  0  0  0  0  0  0  0  0  0  0
   -1.1961   -2.3005   -0.6050 C   0  0  0  0  0  0  0  0  0  0  0  0
   -0.1421   -3.0333   -0.0888 C   0  0  0  0  0  0  0  0  0  0  0  0
   -0.1874   -4.5392   -0.1235 C   0  0  1  0  0  0  0  0  0  0  0  0
    0.3842   -4.9956   -1.3161 F   0  0  0  0  0  0  0  0  0  0  0  0
    0.5287   -5.0525    0.9632 F   0  0  0  0  0  0  0  0  0  0  0  0
   -1.5172   -4.9676   -0.0498 F   0  0  0  0  0  0  0  0  0  0  0  0
    0.9534   -2.3896    0.4588 C   0  0  0  0  0  0  0  0  0  0  0  0
    1.0039   -1.0113    0.4881 C   0  0  0  0  0  0  0  0  0  0  0  0
   -1.1485    1.9155    0.1942 N   0  0  0  0  0  0  0  0  0  0  0  0
   -1.1563    3.3834    0.0919 C   0  0  1  0  0  0  0  0  0  0  0  0
   -1.8229    3.9537    1.3468 C   0  0  2  0  0  0  0  0  0  0  0  0
   -1.9814    5.0243    1.2168 H   0  0  0  0  0  0  0  0  0  0  0  0
   -0.9184    3.7183    2.5597 C   0  0  1  0  0  0  0  0  0  0  0  0
   -0.8931    2.2760    2.8501 N   0  0  0  0  0  0  0  0  0  0  0  0
    0.5397    1.4660    3.0324 S   0  0  1  0  0  0  0  0  0  0  0  0
    0.2679    0.1006    2.7479 O   0  0  0  0  0  0  0  0  0  0  0  0
    1.5205    2.2242    2.3379 O   0  0  0  0  0  0  0  0  0  0  0  0
    0.9686    1.5427    4.7397 C   0  0  0  0  0  0  0  0  0  0  0  0
    1.7321    2.5929    5.2141 C   0  0  0  0  0  0  0  0  0  0  0  0
    2.0685    2.6531    6.5535 C   0  0  0  0  0  0  0  0  0  0  0  0
    1.6411    1.6632    7.4187 C   0  0  0  0  0  0  0  0  0  0  0  0
    0.8769    0.6135    6.9445 C   0  0  0  0  0  0  0  0  0  0  0  0
    0.5368    0.5556    5.6058 C   0  0  0  0  0  0  0  0  0  0  0  0
   -2.1818    1.5763    2.9727 C   0  0  1  0  0  0  0  0  0  0  0  0
   -3.0312    1.9044    1.7417 C   0  0  2  0  0  0  0  0  0  0  0  0
   -4.0431    1.5275    1.8901 H   0  0  0  0  0  0  0  0  0  0  0  0
   -2.4200    1.2406    0.4994 C   0  0  1  0  0  0  0  0  0  0  0  0
   -3.0802    3.3118    1.5603 O   0  0  0  0  0  0  0  0  0  0  0  0
   -1.9846   -0.3508   -0.9790 H   0  0  0  0  0  0  0  0  0  0  0  0
   -2.0483   -2.8090   -1.0310 H   0  0  0  0  0  0  0  0  0  0  0  0
    1.7726   -2.9675    0.8604 H   0  0  0  0  0  0  0  0  0  0  0  0
    1.8596   -0.5100    0.9158 H   0  0  0  0  0  0  0  0  0  0  0  0
   -0.1326    3.7511    0.0217 H   0  0  0  0  0  0  0  0  0  0  0  0
   -1.7187    3.6861   -0.7914 H   0  0  0  0  0  0  0  0  0  0  0  0
    0.0907    4.0648    2.3367 H   0  0  0  0  0  0  0  0  0  0  0  0
   -1.3123    4.2584    3.4206 H   0  0  0  0  0  0  0  0  0  0  0  0
    2.0660    3.3662    4.5382 H   0  0  0  0  0  0  0  0  0  0  0  0
    2.6656    3.4732    6.9240 H   0  0  0  0  0  0  0  0  0  0  0  0
    1.9046    1.7099    8.4650 H   0  0  0  0  0  0  0  0  0  0  0  0
    0.5433   -0.1600    7.6203 H   0  0  0  0  0  0  0  0  0  0  0  0
   -0.0603   -0.2645    5.2354 H   0  0  0  0  0  0  0  0  0  0  0  0
   -2.0114    0.5010    3.0241 H   0  0  0  0  0  0  0  0  0  0  0  0
   -2.6966    1.9120    3.8730 H   0  0  0  0  0  0  0  0  0  0  0  0
   -3.1045    1.3400   -0.3431 H   0  0  0  0  0  0  0  0  0  0  0  0
   -2.2345    0.1857    0.7017 H   0  0  0  0  0  0  0  0  0  0  0  0
  1  2  2  0
  2  3  1  0
  2 13  1  0
  3 12  2  0
  3  4  1  0
  4  5  2  0
  4 33  1  0
  5  6  1  0
  5 34  1  0
  6  7  1  0
  6 11  2  0
  7  8  1  6
  7  9  1  0
  7 10  1  0
 11 12  1  0
 11 35  1  0
 12 36  1  0
 13 31  1  0
 13 14  1  0
 14 15  1  0
 14 37  1  6
 14 38  1  0
 15 16  1  6
 15 32  1  0
 15 17  1  0
 17 18  1  0
 17 39  1  6
 17 40  1  0
 19 18  1  1
 18 28  1  0
 19 20  2  0
 19 21  2  0
 19 22  1  0
 22 27  2  0
 22 23  1  0
 23 24  2  0
 23 41  1  0
 24 25  1  0
 24 42  1  0
 25 26  2  0
 25 43  1  0
 26 27  1  0
 26 44  1  0
 27 45  1  0
 28 29  1  0
 28 46  1  1
 28 47  1  0
 29 30  1  1
 29 31  1  0
 29 32  1  0
 31 48  1  6
 31 49  1  0
M  END
$$$$
