ZINC000023805398
     RDKit          3D

 49 51  0  0  1  0  0  0  0  0999 V2000
    0.0021   -0.0041    0.0020 O   0  0  0  0  0  0  0  0  0  0  0  0
   -0.0172    1.4168    0.0098 S   0  0  1  0  0  0  0  0  0  0  0  0
    1.1617    2.2101    0.0028 O   0  0  0  0  0  0  0  0  0  0  0  0
   -0.9567    1.9094   -1.3970 C   0  0  0  0  0  0  0  0  0  0  0  0
   -1.8848    1.0442   -1.9458 C   0  0  0  0  0  0  0  0  0  0  0  0
   -2.6219    1.4307   -3.0496 C   0  0  0  0  0  0  0  0  0  0  0  0
   -2.4313    2.6825   -3.6042 C   0  0  0  0  0  0  0  0  0  0  0  0
   -3.2345    3.1036   -4.8078 C   0  0  1  0  0  0  0  0  0  0  0  0
   -4.4138    3.7273   -4.3864 F   0  0  0  0  0  0  0  0  0  0  0  0
   -2.4843    3.9973   -5.5796 F   0  0  0  0  0  0  0  0  0  0  0  0
   -3.5510    1.9771   -5.5746 F   0  0  0  0  0  0  0  0  0  0  0  0
   -1.5042    3.5481   -3.0546 C   0  0  0  0  0  0  0  0  0  0  0  0
   -0.7699    3.1631   -1.9485 C   0  0  0  0  0  0  0  0  0  0  0  0
   -0.8748    1.8654    1.3536 N   0  0  0  0  0  0  0  0  0  0  0  0
   -0.6844    3.1904    1.9630 C   0  0  1  0  0  0  0  0  0  0  0  0
   -2.0577    3.8473    2.1385 C   0  0  1  0  0  0  0  0  0  0  0  0
   -2.9388    2.9404    2.8863 N   0  0  0  0  0  0  0  0  0  0  0  0
   -4.2073    3.5994    3.2250 C   0  0  1  0  0  0  0  0  0  0  0  0
   -4.9899    2.7250    4.2068 C   0  0  1  0  0  0  0  0  0  0  0  0
   -5.1172    1.7284    3.7839 H   0  0  0  0  0  0  0  0  0  0  0  0
   -4.2717    2.6316    5.4386 O   0  0  0  0  0  0  0  0  0  0  0  0
   -6.3424    3.3400    4.4592 C   0  0  0  0  0  0  0  0  0  0  0  0
   -6.4677    4.3947    5.3440 C   0  0  0  0  0  0  0  0  0  0  0  0
   -7.7083    4.9589    5.5756 C   0  0  0  0  0  0  0  0  0  0  0  0
   -8.8234    4.4687    4.9221 C   0  0  0  0  0  0  0  0  0  0  0  0
   -8.6979    3.4146    4.0366 C   0  0  0  0  0  0  0  0  0  0  0  0
   -7.4567    2.8532    3.8018 C   0  0  0  0  0  0  0  0  0  0  0  0
   -3.1744    1.6945    2.1446 C   0  0  1  0  0  0  0  0  0  0  0  0
   -1.8513    0.9517    1.9657 C   0  0  1  0  0  0  0  0  0  0  0  0
   -2.0336    0.0662   -1.5125 H   0  0  0  0  0  0  0  0  0  0  0  0
   -3.3464    0.7545   -3.4788 H   0  0  0  0  0  0  0  0  0  0  0  0
   -1.3556    4.5263   -3.4877 H   0  0  0  0  0  0  0  0  0  0  0  0
   -0.0456    3.8394   -1.5191 H   0  0  0  0  0  0  0  0  0  0  0  0
   -0.2041    3.0807    2.9352 H   0  0  0  0  0  0  0  0  0  0  0  0
   -0.0641    3.8070    1.3124 H   0  0  0  0  0  0  0  0  0  0  0  0
   -1.9464    4.7818    2.6884 H   0  0  0  0  0  0  0  0  0  0  0  0
   -2.4915    4.0505    1.1594 H   0  0  0  0  0  0  0  0  0  0  0  0
   -4.0030    4.5670    3.6835 H   0  0  0  0  0  0  0  0  0  0  0  0
   -4.7952    3.7436    2.3186 H   0  0  0  0  0  0  0  0  0  0  0  0
   -4.1215    3.4830    5.8719 H   0  0  0  0  0  0  0  0  0  0  0  0
   -5.5965    4.7777    5.8546 H   0  0  0  0  0  0  0  0  0  0  0  0
   -7.8063    5.7824    6.2674 H   0  0  0  0  0  0  0  0  0  0  0  0
   -9.7927    4.9090    5.1035 H   0  0  0  0  0  0  0  0  0  0  0  0
   -9.5691    3.0314    3.5263 H   0  0  0  0  0  0  0  0  0  0  0  0
   -7.3586    2.0297    3.1100 H   0  0  0  0  0  0  0  0  0  0  0  0
   -3.8729    1.0677    2.6990 H   0  0  0  0  0  0  0  0  0  0  0  0
   -3.5927    1.9277    1.1654 H   0  0  0  0  0  0  0  0  0  0  0  0
   -2.0014    0.0870    1.3193 H   0  0  0  0  0  0  0  0  0  0  0  0
   -1.4800    0.6260    2.9374 H   0  0  0  0  0  0  0  0  0  0  0  0
  1  2  2  0
  2  3  2  0
  2  4  1  0
  2 14  1  1
  4 13  2  0
  4  5  1  0
  5  6  2  0
  5 30  1  0
  6  7  1  0
  6 31  1  0
  7  8  1  0
  7 12  2  0
  8  9  1  1
  8 10  1  0
  8 11  1  0
 12 13  1  0
 12 32  1  0
 13 33  1  0
 14 29  1  0
 14 15  1  0
 15 16  1  0
 15 34  1  1
 15 35  1  0
 16 17  1  0
 16 36  1  1
 16 37  1  0
 17 18  1  0
 17 28  1  0
 18 19  1  0
 18 38  1  1
 18 39  1  0
 19 20  1  6
 19 21  1  0
 19 22  1  0
 21 40  1  0
 22 27  2  0
 22 23  1  0
 23 24  2  0
 23 41  1  0
 24 25  1  0
 24 42  1  0
 25 26  2  0
 25 43  1  0
 26 27  1  0
 26 44  1  0
 27 45  1  0
 28 29  1  0
 28 46  1  1
 28 47  1  0
 29 48  1  6
 29 49  1  0
M  END
$$$$
