ZINC000019477666
     RDKit          3D

 26 26  0  0  1  0  0  0  0  0999 V2000
   -0.0187    1.5258    0.0104 C   0  0  1  0  0  0  0  0  0  0  0  0
    0.0021   -0.0041    0.0020 C   0  0  2  0  0  0  0  0  0  0  0  0
    0.7126   -0.4907    1.1921 N   0  0  1  0  0  0  0  0  0  0  0  0
    0.2403   -0.1653    2.0223 H   0  0  0  0  0  0  0  0  0  0  0  0
    0.7262   -1.4996    1.1866 H   0  0  0  0  0  0  0  0  0  0  0  0
    1.6592   -0.1415    1.1850 H   0  0  0  0  0  0  0  0  0  0  0  0
    0.7074   -0.4901   -1.2379 C   0  0  0  0  0  0  0  0  0  0  0  0
    1.7092   -1.1780   -1.1392 O   0  0  0  0  0  0  0  0  0  0  0  0
    0.2764   -0.1953   -2.3396 O   0  0  0  0  0  0  0  0  0  0  0  0
   -1.4117   -0.5257    0.0127 C   0  0  0  0  0  0  0  0  0  0  0  0
   -2.4237    0.2083   -0.5772 C   0  0  0  0  0  0  0  0  0  0  0  0
   -3.7206   -0.2702   -0.5674 C   0  0  0  0  0  0  0  0  0  0  0  0
   -4.0054   -1.4828    0.0319 C   0  0  0  0  0  0  0  0  0  0  0  0
   -5.4193   -2.0042    0.0431 C   0  0  1  0  0  0  0  0  0  0  0  0
   -5.6382   -2.7828   -1.0985 F   0  0  0  0  0  0  0  0  0  0  0  0
   -5.6191   -2.7859    1.1860 F   0  0  0  0  0  0  0  0  0  0  0  0
   -6.3131   -0.9280    0.0520 F   0  0  0  0  0  0  0  0  0  0  0  0
   -2.9932   -2.2175    0.6207 C   0  0  0  0  0  0  0  0  0  0  0  0
   -1.6957   -1.7408    0.6075 C   0  0  0  0  0  0  0  0  0  0  0  0
    1.0039    1.9031    0.0027 H   0  0  0  0  0  0  0  0  0  0  0  0
   -0.5459    1.8868   -0.8726 H   0  0  0  0  0  0  0  0  0  0  0  0
   -0.5289    1.8773    0.9072 H   0  0  0  0  0  0  0  0  0  0  0  0
   -2.2012    1.1557   -1.0455 H   0  0  0  0  0  0  0  0  0  0  0  0
   -4.5114    0.3036   -1.0277 H   0  0  0  0  0  0  0  0  0  0  0  0
   -3.2156   -3.1651    1.0886 H   0  0  0  0  0  0  0  0  0  0  0  0
   -0.9048   -2.3147    1.0675 H   0  0  0  0  0  0  0  0  0  0  0  0
  1 20  1  6
  1 21  1  0
  1 22  1  0
  2  1  1  0
  2  3  1  0
  2  7  1  6
  2 10  1  0
  3  4  1  1
  3  5  1  0
  3  6  1  0
  7  8  2  0
  7  9  1  0
 10 19  2  0
 10 11  1  0
 11 12  2  0
 11 23  1  0
 12 13  1  0
 12 24  1  0
 13 14  1  0
 13 18  2  0
 14 15  1  6
 14 16  1  0
 14 17  1  0
 18 19  1  0
 18 25  1  0
 19 26  1  0
M  CHG  1   3   1
M  END
$$$$
