ZINC000077200829
     RDKit          3D

 44 46  0  0  0  0  0  0  0  0999 V2000
   -1.5624   -2.4373    0.7723 C   0  0  1  0  0  0  0  0  0  0  0  0
   -0.3848   -1.7401    0.2496 N   0  0  0  0  0  0  0  0  0  0  0  0
    0.1893   -1.9537   -0.9685 C   0  0  0  0  0  0  0  0  0  0  0  0
    1.2471   -1.1259   -1.0871 C   0  0  0  0  0  0  0  0  0  0  0  0
    1.3292   -0.3735    0.1013 C   0  0  0  0  0  0  0  0  0  0  0  0
    0.3148   -0.7662    0.8985 C   0  0  0  0  0  0  0  0  0  0  0  0
    0.0129   -0.2287    2.2736 C   0  0  1  0  0  0  0  0  0  0  0  0
    1.2381    0.3140    2.8656 N   0  0  0  0  0  0  0  0  0  0  0  0
    1.6383    1.6950    2.5842 C   0  0  1  0  0  0  0  0  0  0  0  0
    0.7744    2.4958    1.6079 C   0  0  1  0  0  0  0  0  0  0  0  0
    0.7322    2.8129    3.1041 C   0  0  1  0  0  0  0  0  0  0  0  0
    2.1708   -0.6334    3.8529 S   0  0  1  0  0  0  0  0  0  0  0  0
    2.8446    0.2932    4.6935 O   0  0  0  0  0  0  0  0  0  0  0  0
    1.2599   -1.5823    4.3907 O   0  0  0  0  0  0  0  0  0  0  0  0
    3.3427   -1.4421    2.7290 C   0  0  1  0  0  0  0  0  0  0  0  0
    4.2571   -2.3423    3.5194 C   0  0  0  0  0  0  0  0  0  0  0  0
    5.4406   -1.8461    4.0332 C   0  0  0  0  0  0  0  0  0  0  0  0
    6.2793   -2.6718    4.7582 C   0  0  0  0  0  0  0  0  0  0  0  0
    5.9344   -3.9936    4.9697 C   0  0  0  0  0  0  0  0  0  0  0  0
    6.8490   -4.8939    5.7596 C   0  0  1  0  0  0  0  0  0  0  0  0
    6.5078   -4.8319    7.1150 F   0  0  0  0  0  0  0  0  0  0  0  0
    6.7146   -6.2101    5.3048 F   0  0  0  0  0  0  0  0  0  0  0  0
    8.1735   -4.4756    5.5925 F   0  0  0  0  0  0  0  0  0  0  0  0
    4.7502   -4.4895    4.4570 C   0  0  0  0  0  0  0  0  0  0  0  0
    3.9097   -3.6627    3.7353 C   0  0  0  0  0  0  0  0  0  0  0  0
   -2.4550   -1.8459    0.5684 H   0  0  0  0  0  0  0  0  0  0  0  0
   -1.6530   -3.4101    0.2890 H   0  0  0  0  0  0  0  0  0  0  0  0
   -1.4555   -2.5747    1.8483 H   0  0  0  0  0  0  0  0  0  0  0  0
   -0.1453   -2.6638   -1.7103 H   0  0  0  0  0  0  0  0  0  0  0  0
    1.9097   -1.0529   -1.9368 H   0  0  0  0  0  0  0  0  0  0  0  0
    2.0662    0.3821    0.3300 H   0  0  0  0  0  0  0  0  0  0  0  0
   -0.7351    0.5606    2.1990 H   0  0  0  0  0  0  0  0  0  0  0  0
   -0.3690   -1.0330    2.9023 H   0  0  0  0  0  0  0  0  0  0  0  0
    2.7123    1.8807    2.5755 H   0  0  0  0  0  0  0  0  0  0  0  0
    1.2800    3.2085    0.9564 H   0  0  0  0  0  0  0  0  0  0  0  0
   -0.0917    1.9952    1.1749 H   0  0  0  0  0  0  0  0  0  0  0  0
   -0.1616    2.5209    3.6554 H   0  0  0  0  0  0  0  0  0  0  0  0
    1.2101    3.7342    3.4369 H   0  0  0  0  0  0  0  0  0  0  0  0
    2.7941   -2.0342    1.9966 H   0  0  0  0  0  0  0  0  0  0  0  0
    3.9342   -0.6848    2.2145 H   0  0  0  0  0  0  0  0  0  0  0  0
    5.7101   -0.8134    3.8680 H   0  0  0  0  0  0  0  0  0  0  0  0
    7.2043   -2.2843    5.1590 H   0  0  0  0  0  0  0  0  0  0  0  0
    4.4805   -5.5221    4.6226 H   0  0  0  0  0  0  0  0  0  0  0  0
    2.9845   -4.0501    3.3348 H   0  0  0  0  0  0  0  0  0  0  0  0
  1  2  1  0
  1 26  1  1
  1 27  1  0
  1 28  1  0
  2  6  1  0
  2  3  1  0
  3  4  2  0
  3 29  1  0
  4  5  1  0
  4 30  1  0
  5  6  2  0
  5 31  1  0
  6  7  1  0
  7  8  1  0
  7 32  1  6
  7 33  1  0
  8  9  1  0
 12  8  1  6
  9 11  1  0
  9 10  1  0
  9 34  1  6
 10 11  1  0
 10 35  1  6
 10 36  1  0
 11 37  1  1
 11 38  1  0
 12 13  2  0
 12 14  2  0
 12 15  1  0
 15 16  1  0
 15 39  1  6
 15 40  1  0
 16 25  2  0
 16 17  1  0
 17 18  2  0
 17 41  1  0
 18 19  1  0
 18 42  1  0
 19 20  1  0
 19 24  2  0
 20 21  1  1
 20 22  1  0
 20 23  1  0
 24 25  1  0
 24 43  1  0
 25 44  1  0
M  END
$$$$
