ZINC000032867738
     RDKit          3D

 46 47  0  0  1  0  0  0  0  0999 V2000
    0.0236    1.5271    0.0060 C   0  0  1  0  0  0  0  0  0  0  0  0
    0.0339   -0.0028   -0.0010 C   0  0  1  0  0  0  0  0  0  0  0  0
    0.7041   -0.4811   -1.2127 N   0  0  0  0  0  0  0  0  0  0  0  0
    2.1631   -0.6111   -1.2400 C   0  0  1  0  0  0  0  0  0  0  0  0
    2.5652   -1.9680   -0.6586 C   0  0  1  0  0  0  0  0  0  0  0  0
   -0.1875   -0.8749   -2.5515 S   0  0  1  0  0  0  0  0  0  0  0  0
    0.6029   -1.7823   -3.3072 O   0  0  0  0  0  0  0  0  0  0  0  0
   -1.4944   -1.1832   -2.0868 O   0  0  0  0  0  0  0  0  0  0  0  0
   -0.3375    0.5853   -3.5262 C   0  0  0  0  0  0  0  0  0  0  0  0
   -1.3987    1.4472   -3.3187 C   0  0  0  0  0  0  0  0  0  0  0  0
   -1.5192    2.5926   -4.0811 C   0  0  0  0  0  0  0  0  0  0  0  0
   -0.5729    2.8785   -5.0564 C   0  0  0  0  0  0  0  0  0  0  0  0
   -0.6918    4.0383   -5.8301 N   0  0  0  0  0  0  0  0  0  0  0  0
    0.3088    4.4902   -6.8040 C   0  0  1  0  0  0  0  0  0  0  0  0
   -0.4205    5.5181   -7.6973 C   0  0  2  0  0  0  0  0  0  0  0  0
   -0.8423    5.0378   -8.5802 H   0  0  0  0  0  0  0  0  0  0  0  0
    0.5023    6.6436   -8.0882 C   0  0  0  0  0  0  0  0  0  0  0  0
    1.6468    6.6487   -7.7009 O   0  0  0  0  0  0  0  0  0  0  0  0
    0.0527    7.6405   -8.8666 O   0  0  0  0  0  0  0  0  0  0  0  0
    0.9968    8.6910   -9.2032 C   0  0  1  0  0  0  0  0  0  0  0  0
   -1.5376    6.0198   -6.7533 C   0  0  1  0  0  0  0  0  0  0  0  0
   -1.7398    4.8786   -5.7810 C   0  0  0  0  0  0  0  0  0  0  0  0
   -2.7038    4.7452   -5.0571 O   0  0  0  0  0  0  0  0  0  0  0  0
    0.4920    2.0111   -5.2619 C   0  0  0  0  0  0  0  0  0  0  0  0
    0.6093    0.8698   -4.4930 C   0  0  0  0  0  0  0  0  0  0  0  0
    1.0485    1.8975   -0.0125 H   0  0  0  0  0  0  0  0  0  0  0  0
   -0.5101    1.8909   -0.8721 H   0  0  0  0  0  0  0  0  0  0  0  0
   -0.4751    1.8830    0.9075 H   0  0  0  0  0  0  0  0  0  0  0  0
    0.5675   -0.3666    0.8771 H   0  0  0  0  0  0  0  0  0  0  0  0
   -0.9911   -0.3731    0.0175 H   0  0  0  0  0  0  0  0  0  0  0  0
    2.5152   -0.5379   -2.2690 H   0  0  0  0  0  0  0  0  0  0  0  0
    2.6100    0.1858   -0.6455 H   0  0  0  0  0  0  0  0  0  0  0  0
    2.1183   -2.7648   -1.2531 H   0  0  0  0  0  0  0  0  0  0  0  0
    3.6507   -2.0647   -0.6789 H   0  0  0  0  0  0  0  0  0  0  0  0
    2.2131   -2.0411    0.3704 H   0  0  0  0  0  0  0  0  0  0  0  0
   -2.1344    1.2244   -2.5601 H   0  0  0  0  0  0  0  0  0  0  0  0
   -2.3487    3.2650   -3.9191 H   0  0  0  0  0  0  0  0  0  0  0  0
    1.1469    4.9630   -6.2920 H   0  0  0  0  0  0  0  0  0  0  0  0
    0.6579    3.6497   -7.4038 H   0  0  0  0  0  0  0  0  0  0  0  0
    1.3493    9.1693   -8.2893 H   0  0  0  0  0  0  0  0  0  0  0  0
    1.8436    8.2609   -9.7380 H   0  0  0  0  0  0  0  0  0  0  0  0
    0.5063    9.4316   -9.8349 H   0  0  0  0  0  0  0  0  0  0  0  0
   -1.2182    6.9206   -6.2291 H   0  0  0  0  0  0  0  0  0  0  0  0
   -2.4541    6.2076   -7.3127 H   0  0  0  0  0  0  0  0  0  0  0  0
    1.2295    2.2306   -6.0197 H   0  0  0  0  0  0  0  0  0  0  0  0
    1.4372    0.1948   -4.6523 H   0  0  0  0  0  0  0  0  0  0  0  0
  1  2  1  0
  1 26  1  6
  1 27  1  0
  1 28  1  0
  2  3  1  0
  2 29  1  1
  2 30  1  0
  3  4  1  0
  6  3  1  1
  4  5  1  0
  4 31  1  6
  4 32  1  0
  5 33  1  6
  5 34  1  0
  5 35  1  0
  6  7  2  0
  6  8  2  0
  6  9  1  0
  9 25  2  0
  9 10  1  0
 10 11  2  0
 10 36  1  0
 11 12  1  0
 11 37  1  0
 12 13  1  0
 12 24  2  0
 13 22  1  0
 13 14  1  0
 14 15  1  0
 14 38  1  1
 14 39  1  0
 15 16  1  6
 15 17  1  0
 15 21  1  0
 17 18  2  0
 17 19  1  0
 19 20  1  0
 20 40  1  1
 20 41  1  0
 20 42  1  0
 21 22  1  0
 21 43  1  1
 21 44  1  0
 22 23  2  0
 24 25  1  0
 24 45  1  0
 25 46  1  0
M  END
$$$$
