ZINC000009806357
     RDKit          3D

 56 58  0  0  1  0  0  0  0  0999 V2000
    1.5209    1.2804    0.1451 C   0  0  1  0  0  0  0  0  0  0  0  0
    0.9734   -0.1236    0.1593 C   0  0  0  0  0  0  0  0  0  0  0  0
    0.7342   -0.7600    1.3629 C   0  0  0  0  0  0  0  0  0  0  0  0
    0.2320   -2.0479    1.3760 C   0  0  0  0  0  0  0  0  0  0  0  0
   -0.0283   -2.7419    2.6881 C   0  0  1  0  0  0  0  0  0  0  0  0
   -0.0318   -2.6990    0.1854 C   0  0  0  0  0  0  0  0  0  0  0  0
   -0.6724   -4.3403    0.2020 S   0  0  1  0  0  0  0  0  0  0  0  0
   -1.3136   -4.5080    1.4590 O   0  0  0  0  0  0  0  0  0  0  0  0
   -1.3374   -4.5241   -1.0403 O   0  0  0  0  0  0  0  0  0  0  0  0
    0.6228   -5.3721    0.1964 N   0  0  0  0  0  0  0  0  0  0  0  0
    1.3693   -5.8074   -0.9980 C   0  0  1  0  0  0  0  0  0  0  0  0
    2.7690   -6.2061   -0.4674 C   0  0  1  0  0  0  0  0  0  0  0  0
    2.4120   -6.8553    0.8958 C   0  0  1  0  0  0  0  0  0  0  0  0
    1.2226   -6.0009    1.3823 C   0  0  2  0  0  0  0  0  0  0  0  0
    1.5742   -5.2365    2.0753 H   0  0  0  0  0  0  0  0  0  0  0  0
    0.1889   -6.8930    2.0725 C   0  0  1  0  0  0  0  0  0  0  0  0
    0.7741   -7.4703    3.2852 N   0  0  0  0  0  0  0  0  0  0  0  0
    0.0790   -8.3734    4.0048 C   0  0  0  0  0  0  0  0  0  0  0  0
   -0.9902   -8.7827    3.5966 O   0  0  0  0  0  0  0  0  0  0  0  0
    0.6172   -8.8663    5.2906 C   0  0  0  0  0  0  0  0  0  0  0  0
    1.7843   -8.3134    5.8199 C   0  0  0  0  0  0  0  0  0  0  0  0
    2.2809   -8.7775    7.0204 C   0  0  0  0  0  0  0  0  0  0  0  0
    1.6249   -9.7890    7.6992 C   0  0  0  0  0  0  0  0  0  0  0  0
    2.1734  -10.2914    9.0099 C   0  0  1  0  0  0  0  0  0  0  0  0
    1.6249   -9.5482   10.0605 F   0  0  0  0  0  0  0  0  0  0  0  0
    1.8392  -11.6406    9.1688 F   0  0  0  0  0  0  0  0  0  0  0  0
    3.5654  -10.1518    9.0170 F   0  0  0  0  0  0  0  0  0  0  0  0
    0.4672  -10.3411    7.1802 C   0  0  0  0  0  0  0  0  0  0  0  0
   -0.0429   -9.8825    5.9832 C   0  0  0  0  0  0  0  0  0  0  0  0
    0.2066   -2.0622   -1.0182 C   0  0  0  0  0  0  0  0  0  0  0  0
   -0.0815   -2.7718   -2.3161 C   0  0  1  0  0  0  0  0  0  0  0  0
    0.7051   -0.7729   -1.0312 C   0  0  0  0  0  0  0  0  0  0  0  0
    0.6955    1.9923    0.1537 H   0  0  0  0  0  0  0  0  0  0  0  0
    2.1443    1.4362    1.0255 H   0  0  0  0  0  0  0  0  0  0  0  0
    2.1188    1.4281   -0.7542 H   0  0  0  0  0  0  0  0  0  0  0  0
    0.9400   -0.2512    2.2931 H   0  0  0  0  0  0  0  0  0  0  0  0
   -1.0788   -2.6295    2.9564 H   0  0  0  0  0  0  0  0  0  0  0  0
    0.2111   -3.8010    2.5927 H   0  0  0  0  0  0  0  0  0  0  0  0
    0.5945   -2.2971    3.4642 H   0  0  0  0  0  0  0  0  0  0  0  0
    0.8801   -6.6652   -1.4595 H   0  0  0  0  0  0  0  0  0  0  0  0
    1.4535   -4.9882   -1.7122 H   0  0  0  0  0  0  0  0  0  0  0  0
    3.2473   -6.9271   -1.1302 H   0  0  0  0  0  0  0  0  0  0  0  0
    3.3990   -5.3275   -0.3286 H   0  0  0  0  0  0  0  0  0  0  0  0
    2.1150   -7.8954    0.7616 H   0  0  0  0  0  0  0  0  0  0  0  0
    3.2485   -6.7786    1.5904 H   0  0  0  0  0  0  0  0  0  0  0  0
   -0.6848   -6.2980    2.3384 H   0  0  0  0  0  0  0  0  0  0  0  0
   -0.1092   -7.6941    1.3961 H   0  0  0  0  0  0  0  0  0  0  0  0
    1.6617   -7.2025    3.5702 H   0  0  0  0  0  0  0  0  0  0  0  0
    2.2977   -7.5242    5.2907 H   0  0  0  0  0  0  0  0  0  0  0  0
    3.1839   -8.3505    7.4312 H   0  0  0  0  0  0  0  0  0  0  0  0
   -0.0403  -11.1302    7.7151 H   0  0  0  0  0  0  0  0  0  0  0  0
   -0.9468  -10.3140    5.5793 H   0  0  0  0  0  0  0  0  0  0  0  0
   -1.1372   -2.6613   -2.5640 H   0  0  0  0  0  0  0  0  0  0  0  0
    0.5256   -2.3373   -3.1102 H   0  0  0  0  0  0  0  0  0  0  0  0
    0.1586   -3.8300   -2.2127 H   0  0  0  0  0  0  0  0  0  0  0  0
    0.8914   -0.2754   -1.9715 H   0  0  0  0  0  0  0  0  0  0  0  0
  1  2  1  0
  1 33  1  6
  1 34  1  0
  1 35  1  0
  2 32  2  0
  2  3  1  0
  3  4  2  0
  3 36  1  0
  4  5  1  0
  4  6  1  0
  5 37  1  1
  5 38  1  0
  5 39  1  0
  6  7  1  0
  6 30  2  0
  7  8  2  0
  7  9  2  0
  7 10  1  1
 10 14  1  0
 10 11  1  0
 11 12  1  0
 11 40  1  6
 11 41  1  0
 12 13  1  0
 12 42  1  6
 12 43  1  0
 13 14  1  0
 13 44  1  6
 13 45  1  0
 14 15  1  1
 14 16  1  0
 16 17  1  0
 16 46  1  1
 16 47  1  0
 17 18  1  0
 17 48  1  0
 18 19  2  0
 18 20  1  0
 20 29  2  0
 20 21  1  0
 21 22  2  0
 21 49  1  0
 22 23  1  0
 22 50  1  0
 23 24  1  0
 23 28  2  0
 24 25  1  1
 24 26  1  0
 24 27  1  0
 28 29  1  0
 28 51  1  0
 29 52  1  0
 30 31  1  0
 30 32  1  0
 31 53  1  6
 31 54  1  0
 31 55  1  0
 32 56  1  0
M  END
$$$$
