ZINC000012933239
     RDKit          3D

 44 45  0  0  0  0  0  0  0  0999 V2000
   -0.0015    1.4877   -0.0008 C   0  0  1  0  0  0  0  0  0  0  0  0
    0.0210   -0.0421    0.0022 C   0  0  1  0  0  0  0  0  0  0  0  0
    0.7257   -0.5178    1.1953 N   0  0  0  0  0  0  0  0  0  0  0  0
    0.0044   -0.6658    2.4618 C   0  0  1  0  0  0  0  0  0  0  0  0
   -0.6814   -2.0329    2.5013 C   0  0  1  0  0  0  0  0  0  0  0  0
    2.3376   -0.8881    1.1122 S   0  0  1  0  0  0  0  0  0  0  0  0
    2.5953   -1.7985    2.1724 O   0  0  0  0  0  0  0  0  0  0  0  0
    2.6117   -1.1842   -0.2503 O   0  0  0  0  0  0  0  0  0  0  0  0
    3.2309    0.5826    1.4912 C   0  0  0  0  0  0  0  0  0  0  0  0
    3.5833    1.4554    0.4788 C   0  0  0  0  0  0  0  0  0  0  0  0
    4.2844    2.6114    0.7701 C   0  0  0  0  0  0  0  0  0  0  0  0
    4.6352    2.8977    2.0789 C   0  0  0  0  0  0  0  0  0  0  0  0
    5.3242    4.0341    2.3668 O   0  0  0  0  0  0  0  0  0  0  0  0
    5.6539    4.8885    1.2698 C   0  0  1  0  0  0  0  0  0  0  0  0
    4.2800    2.0185    3.1001 C   0  0  0  0  0  0  0  0  0  0  0  0
    4.6319    2.3028    4.4254 N   0  0  0  0  0  0  0  0  0  0  0  0
    3.8045    1.9568    5.4314 C   0  0  0  0  0  0  0  0  0  0  0  0
    2.7905    1.3258    5.1959 O   0  0  0  0  0  0  0  0  0  0  0  0
    4.1253    2.3402    6.8084 C   0  0  0  0  0  0  0  0  0  0  0  0
    3.3802    2.0508    7.9165 C   0  0  0  0  0  0  0  0  0  0  0  0
    4.0556    2.6054    9.0135 C   0  0  0  0  0  0  0  0  0  0  0  0
    5.1715    3.2030    8.5338 C   0  0  0  0  0  0  0  0  0  0  0  0
    6.3579    4.0414    9.4841 Cl  0  0  0  0  0  0  0  0  0  0  0  0
    5.2117    3.0362    7.2052 O   0  0  0  0  0  0  0  0  0  0  0  0
    3.5726    0.8636    2.8009 C   0  0  0  0  0  0  0  0  0  0  0  0
    1.0207    1.8661   -0.0075 H   0  0  0  0  0  0  0  0  0  0  0  0
   -0.5258    1.8417   -0.8884 H   0  0  0  0  0  0  0  0  0  0  0  0
   -0.5154    1.8453    0.8915 H   0  0  0  0  0  0  0  0  0  0  0  0
   -1.0012   -0.4205    0.0090 H   0  0  0  0  0  0  0  0  0  0  0  0
    0.5349   -0.3997   -0.8901 H   0  0  0  0  0  0  0  0  0  0  0  0
    0.7071   -0.5878    3.2914 H   0  0  0  0  0  0  0  0  0  0  0  0
   -0.7463    0.1199    2.5464 H   0  0  0  0  0  0  0  0  0  0  0  0
   -1.3841   -2.1109    1.6717 H   0  0  0  0  0  0  0  0  0  0  0  0
    0.0693   -2.8186    2.4167 H   0  0  0  0  0  0  0  0  0  0  0  0
   -1.2181   -2.1431    3.4436 H   0  0  0  0  0  0  0  0  0  0  0  0
    3.3106    1.2339   -0.5424 H   0  0  0  0  0  0  0  0  0  0  0  0
    4.5588    3.2908   -0.0234 H   0  0  0  0  0  0  0  0  0  0  0  0
    6.2013    5.7566    1.6371 H   0  0  0  0  0  0  0  0  0  0  0  0
    6.2732    4.3430    0.5578 H   0  0  0  0  0  0  0  0  0  0  0  0
    4.7387    5.2176    0.7778 H   0  0  0  0  0  0  0  0  0  0  0  0
    5.4713    2.7487    4.6194 H   0  0  0  0  0  0  0  0  0  0  0  0
    2.4507    1.5015    7.9427 H   0  0  0  0  0  0  0  0  0  0  0  0
    3.7440    2.5636   10.0467 H   0  0  0  0  0  0  0  0  0  0  0  0
    3.2957    0.1801    3.5899 H   0  0  0  0  0  0  0  0  0  0  0  0
  1  2  1  0
  1 26  1  6
  1 27  1  0
  1 28  1  0
  2  3  1  0
  2 29  1  1
  2 30  1  0
  3  4  1  0
  6  3  1  6
  4  5  1  0
  4 31  1  1
  4 32  1  0
  5 33  1  6
  5 34  1  0
  5 35  1  0
  6  7  2  0
  6  8  2  0
  6  9  1  0
  9 25  2  0
  9 10  1  0
 10 11  2  0
 10 36  1  0
 11 12  1  0
 11 37  1  0
 12 13  1  0
 12 15  2  0
 13 14  1  0
 14 38  1  1
 14 39  1  0
 14 40  1  0
 15 16  1  0
 15 25  1  0
 16 17  1  0
 16 41  1  0
 17 18  2  0
 17 19  1  0
 19 24  1  0
 19 20  2  0
 20 21  1  0
 20 42  1  0
 21 22  2  0
 21 43  1  0
 22 23  1  0
 22 24  1  0
 25 44  1  0
M  END
$$$$
