ZINC000026535279
     RDKit          3D

 46 48  0  0  0  0  0  0  0  0999 V2000
   -3.2470    1.1924    2.2217 N   0  0  0  0  0  0  0  0  0  0  0  0
   -3.1393   -0.1500    2.1686 C   0  0  0  0  0  0  0  0  0  0  0  0
   -2.4864   -0.7395    3.0036 O   0  0  0  0  0  0  0  0  0  0  0  0
   -3.8300   -0.9185    1.0716 C   0  0  1  0  0  0  0  0  0  0  0  0
   -3.3053   -0.4499   -0.2875 C   0  0  1  0  0  0  0  0  0  0  0  0
   -4.0343   -1.2085   -1.4010 C   0  0  1  0  0  0  0  0  0  0  0  0
   -3.8900   -2.6512   -1.1632 N   0  0  0  0  0  0  0  0  0  0  0  0
   -3.4082   -3.4612   -2.1267 C   0  0  0  0  0  0  0  0  0  0  0  0
   -3.1767   -3.0172   -3.2346 O   0  0  0  0  0  0  0  0  0  0  0  0
   -3.1614   -4.8875   -1.8368 C   0  0  0  0  0  0  0  0  0  0  0  0
   -2.3729   -5.2560   -0.7470 C   0  0  0  0  0  0  0  0  0  0  0  0
   -2.1455   -6.5906   -0.4807 C   0  0  0  0  0  0  0  0  0  0  0  0
   -2.6956   -7.5704   -1.2900 C   0  0  0  0  0  0  0  0  0  0  0  0
   -3.4789   -7.2243   -2.3732 C   0  0  0  0  0  0  0  0  0  0  0  0
   -3.7249   -5.8837   -2.6545 C   0  0  0  0  0  0  0  0  0  0  0  0
   -4.5649   -5.5078   -3.8160 C   0  0  0  0  0  0  0  0  0  0  0  0
   -5.6473   -4.6452   -3.6469 C   0  0  0  0  0  0  0  0  0  0  0  0
   -6.4259   -4.2987   -4.7322 C   0  0  0  0  0  0  0  0  0  0  0  0
   -6.1344   -4.8054   -5.9860 C   0  0  0  0  0  0  0  0  0  0  0  0
   -6.9887   -4.4231   -7.1672 C   0  0  1  0  0  0  0  0  0  0  0  0
   -6.4667   -3.2721   -7.7672 F   0  0  0  0  0  0  0  0  0  0  0  0
   -6.9969   -5.4700   -8.0951 F   0  0  0  0  0  0  0  0  0  0  0  0
   -8.2957   -4.1722   -6.7357 F   0  0  0  0  0  0  0  0  0  0  0  0
   -5.0616   -5.6613   -6.1600 C   0  0  0  0  0  0  0  0  0  0  0  0
   -4.2726   -6.0107   -5.0832 C   0  0  0  0  0  0  0  0  0  0  0  0
   -4.2804   -3.1941    0.1451 C   0  0  1  0  0  0  0  0  0  0  0  0
   -3.5486   -2.4132    1.2412 C   0  0  1  0  0  0  0  0  0  0  0  0
   -2.8024    1.6871    2.9278 H   0  0  0  0  0  0  0  0  0  0  0  0
   -3.7658    1.6642    1.5516 H   0  0  0  0  0  0  0  0  0  0  0  0
   -4.9043   -0.7428    1.1261 H   0  0  0  0  0  0  0  0  0  0  0  0
   -3.4850    0.6195   -0.3979 H   0  0  0  0  0  0  0  0  0  0  0  0
   -2.2354   -0.6481   -0.3524 H   0  0  0  0  0  0  0  0  0  0  0  0
   -5.0909   -0.9410   -1.3942 H   0  0  0  0  0  0  0  0  0  0  0  0
   -3.5963   -0.9516   -2.3655 H   0  0  0  0  0  0  0  0  0  0  0  0
   -1.9401   -4.4971   -0.1121 H   0  0  0  0  0  0  0  0  0  0  0  0
   -1.5344   -6.8728    0.3639 H   0  0  0  0  0  0  0  0  0  0  0  0
   -2.5106   -8.6120   -1.0727 H   0  0  0  0  0  0  0  0  0  0  0  0
   -3.9044   -7.9943   -2.9996 H   0  0  0  0  0  0  0  0  0  0  0  0
   -5.8760   -4.2493   -2.6685 H   0  0  0  0  0  0  0  0  0  0  0  0
   -7.2648   -3.6309   -4.6025 H   0  0  0  0  0  0  0  0  0  0  0  0
   -4.8389   -6.0537   -7.1412 H   0  0  0  0  0  0  0  0  0  0  0  0
   -3.4351   -6.6787   -5.2202 H   0  0  0  0  0  0  0  0  0  0  0  0
   -5.3571   -3.0885    0.2780 H   0  0  0  0  0  0  0  0  0  0  0  0
   -4.0048   -4.2472    0.2007 H   0  0  0  0  0  0  0  0  0  0  0  0
   -2.4765   -2.5929    1.1619 H   0  0  0  0  0  0  0  0  0  0  0  0
   -3.9016   -2.7412    2.2189 H   0  0  0  0  0  0  0  0  0  0  0  0
  1  2  1  0
  1 28  1  0
  1 29  1  0
  2  3  2  0
  2  4  1  0
  4 27  1  0
  4  5  1  0
  4 30  1  6
  5  6  1  0
  5 31  1  6
  5 32  1  0
  6  7  1  0
  6 33  1  6
  6 34  1  0
  7  8  1  0
  7 26  1  0
  8  9  2  0
  8 10  1  0
 10 15  2  0
 10 11  1  0
 11 12  2  0
 11 35  1  0
 12 13  1  0
 12 36  1  0
 13 14  2  0
 13 37  1  0
 14 15  1  0
 14 38  1  0
 15 16  1  0
 16 25  2  0
 16 17  1  0
 17 18  2  0
 17 39  1  0
 18 19  1  0
 18 40  1  0
 19 20  1  0
 19 24  2  0
 20 21  1  6
 20 22  1  0
 20 23  1  0
 24 25  1  0
 24 41  1  0
 25 42  1  0
 26 27  1  0
 26 43  1  1
 26 44  1  0
 27 45  1  1
 27 46  1  0
M  END
$$$$
