ZINC000028208096
     RDKit          3D

 44 45  0  0  0  0  0  0  0  0999 V2000
   -0.0187    1.5258    0.0104 C   0  0  1  0  0  0  0  0  0  0  0  0
    0.0021   -0.0041    0.0020 C   0  0  1  0  0  0  0  0  0  0  0  0
    0.6878   -0.4765   -1.2033 N   0  0  0  0  0  0  0  0  0  0  0  0
    2.1478   -0.5966   -1.2159 C   0  0  1  0  0  0  0  0  0  0  0  0
    2.5532   -1.9514   -0.6319 C   0  0  1  0  0  0  0  0  0  0  0  0
   -0.1875   -0.8749   -2.5515 S   0  0  1  0  0  0  0  0  0  0  0  0
    0.6166   -1.7761   -3.3001 O   0  0  0  0  0  0  0  0  0  0  0  0
   -1.4970   -1.1925   -2.1004 O   0  0  0  0  0  0  0  0  0  0  0  0
   -0.3375    0.5853   -3.5262 C   0  0  0  0  0  0  0  0  0  0  0  0
   -1.4061    1.4397   -3.3289 C   0  0  0  0  0  0  0  0  0  0  0  0
   -1.5264    2.5859   -4.0915 C   0  0  0  0  0  0  0  0  0  0  0  0
   -0.5738    2.8793   -5.0556 C   0  0  0  0  0  0  0  0  0  0  0  0
   -0.6898    4.0063   -5.8064 O   0  0  0  0  0  0  0  0  0  0  0  0
   -1.8185    4.8441   -5.5491 C   0  0  1  0  0  0  0  0  0  0  0  0
   -1.7795    6.0364   -6.4699 C   0  0  0  0  0  0  0  0  0  0  0  0
   -0.8743    6.1569   -7.2680 O   0  0  0  0  0  0  0  0  0  0  0  0
   -2.7506    6.9688   -6.4066 N   0  0  0  0  0  0  0  0  0  0  0  0
   -2.7127    8.1279   -7.3017 C   0  0  1  0  0  0  0  0  0  0  0  0
   -4.0237    8.5482   -7.9692 C   0  0  1  0  0  0  0  0  0  0  0  0
   -3.4315    9.3983   -6.8433 C   0  0  1  0  0  0  0  0  0  0  0  0
    0.4989    2.0198   -5.2522 C   0  0  0  0  0  0  0  0  0  0  0  0
    1.6938    2.3831   -6.4580 Cl  0  0  0  0  0  0  0  0  0  0  0  0
    0.6171    0.8775   -4.4832 C   0  0  0  0  0  0  0  0  0  0  0  0
    1.0039    1.9031    0.0027 H   0  0  0  0  0  0  0  0  0  0  0  0
   -0.5459    1.8868   -0.8726 H   0  0  0  0  0  0  0  0  0  0  0  0
   -0.5289    1.8773    0.9072 H   0  0  0  0  0  0  0  0  0  0  0  0
    0.5293   -0.3651    0.8851 H   0  0  0  0  0  0  0  0  0  0  0  0
   -1.0205   -0.3814    0.0098 H   0  0  0  0  0  0  0  0  0  0  0  0
    2.5098   -0.5199   -2.2412 H   0  0  0  0  0  0  0  0  0  0  0  0
    2.5833    0.2026   -0.6162 H   0  0  0  0  0  0  0  0  0  0  0  0
    2.1912   -2.0280    0.3934 H   0  0  0  0  0  0  0  0  0  0  0  0
    2.1177   -2.7506   -1.2316 H   0  0  0  0  0  0  0  0  0  0  0  0
    3.6395   -2.0407   -0.6413 H   0  0  0  0  0  0  0  0  0  0  0  0
   -2.1482    1.2110   -2.5782 H   0  0  0  0  0  0  0  0  0  0  0  0
   -2.3618    3.2526   -3.9368 H   0  0  0  0  0  0  0  0  0  0  0  0
   -2.7358    4.2812   -5.7222 H   0  0  0  0  0  0  0  0  0  0  0  0
   -1.7905    5.1836   -4.5137 H   0  0  0  0  0  0  0  0  0  0  0  0
   -3.4746    6.8724   -5.7683 H   0  0  0  0  0  0  0  0  0  0  0  0
   -1.7940    8.2487   -7.8757 H   0  0  0  0  0  0  0  0  0  0  0  0
   -3.9677    8.9456   -8.9826 H   0  0  0  0  0  0  0  0  0  0  0  0
   -4.9144    7.9624   -7.7422 H   0  0  0  0  0  0  0  0  0  0  0  0
   -3.9327    9.3718   -5.8757 H   0  0  0  0  0  0  0  0  0  0  0  0
   -2.9859   10.3550   -7.1161 H   0  0  0  0  0  0  0  0  0  0  0  0
    1.4512    0.2085   -4.6351 H   0  0  0  0  0  0  0  0  0  0  0  0
  1  2  1  0
  1 24  1  6
  1 25  1  0
  1 26  1  0
  2  3  1  0
  2 27  1  1
  2 28  1  0
  3  4  1  0
  6  3  1  1
  4  5  1  0
  4 29  1  6
  4 30  1  0
  5 31  1  1
  5 32  1  0
  5 33  1  0
  6  7  2  0
  6  8  2  0
  6  9  1  0
  9 23  2  0
  9 10  1  0
 10 11  2  0
 10 34  1  0
 11 12  1  0
 11 35  1  0
 12 13  1  0
 12 21  2  0
 13 14  1  0
 14 15  1  0
 14 36  1  1
 14 37  1  0
 15 16  2  0
 15 17  1  0
 17 18  1  0
 17 38  1  0
 18 20  1  0
 18 19  1  0
 18 39  1  6
 19 20  1  0
 19 40  1  6
 19 41  1  0
 20 42  1  1
 20 43  1  0
 21 22  1  0
 21 23  1  0
 23 44  1  0
M  END
$$$$
