ZINC000096171017
     RDKit          3D

 36 37  0  0  1  0  0  0  0  0999 V2000
   -0.0187    1.5258    0.0104 C   0  0  1  0  0  0  0  0  0  0  0  0
    0.0021   -0.0041    0.0020 C   0  0  1  0  0  0  0  0  0  0  0  0
   -1.0203   -0.3818    0.0098 H   0  0  0  0  0  0  0  0  0  0  0  0
    0.7197   -0.4983   -1.2561 C   0  0  1  0  0  0  0  0  0  0  0  0
    0.7122   -2.0284   -1.2819 C   0  0  1  0  0  0  0  0  0  0  0  0
    1.4632   -2.5595   -0.0568 C   0  0  1  0  0  0  0  0  0  0  0  0
    0.8694   -1.9734    1.1526 N   0  0  0  0  0  0  0  0  0  0  0  0
    0.3506   -2.9415    2.3919 S   0  0  1  0  0  0  0  0  0  0  0  0
   -0.6237   -2.1924    3.1054 O   0  0  0  0  0  0  0  0  0  0  0  0
    0.0867   -4.2162    1.8220 O   0  0  0  0  0  0  0  0  0  0  0  0
    1.7122   -3.1591    3.4888 C   0  0  0  0  0  0  0  0  0  0  0  0
    2.5895   -4.2102    3.3010 C   0  0  0  0  0  0  0  0  0  0  0  0
    3.6589   -4.3808    4.1620 C   0  0  0  0  0  0  0  0  0  0  0  0
    4.8601   -5.8185    3.9051 Br  0  0  0  0  0  0  0  0  0  0  0  0
    3.8494   -3.4991    5.2105 C   0  0  0  0  0  0  0  0  0  0  0  0
    2.9713   -2.4480    5.3976 C   0  0  0  0  0  0  0  0  0  0  0  0
    3.1790   -1.4870    6.5397 C   0  0  1  0  0  0  0  0  0  0  0  0
    4.3156   -1.8621    7.2639 F   0  0  0  0  0  0  0  0  0  0  0  0
    3.3533   -0.1938    6.0352 F   0  0  0  0  0  0  0  0  0  0  0  0
    2.0609   -1.5129    7.3802 F   0  0  0  0  0  0  0  0  0  0  0  0
    1.9060   -2.2750    4.5340 C   0  0  0  0  0  0  0  0  0  0  0  0
    0.7443   -0.5122    1.2421 C   0  0  1  0  0  0  0  0  0  0  0  0
    1.0039    1.9031    0.0027 H   0  0  0  0  0  0  0  0  0  0  0  0
   -0.5459    1.8868   -0.8726 H   0  0  0  0  0  0  0  0  0  0  0  0
   -0.5289    1.8773    0.9072 H   0  0  0  0  0  0  0  0  0  0  0  0
    0.2072   -0.1177   -2.1396 H   0  0  0  0  0  0  0  0  0  0  0  0
    1.7492   -0.1402   -1.2513 H   0  0  0  0  0  0  0  0  0  0  0  0
   -0.3167   -2.3876   -1.2618 H   0  0  0  0  0  0  0  0  0  0  0  0
    1.2029   -2.3794   -2.1897 H   0  0  0  0  0  0  0  0  0  0  0  0
    1.3762   -3.6453   -0.0173 H   0  0  0  0  0  0  0  0  0  0  0  0
    2.5140   -2.2771   -0.1216 H   0  0  0  0  0  0  0  0  0  0  0  0
    2.4402   -4.8987    2.4823 H   0  0  0  0  0  0  0  0  0  0  0  0
    4.6838   -3.6321    5.8831 H   0  0  0  0  0  0  0  0  0  0  0  0
    1.2204   -1.4534    4.6803 H   0  0  0  0  0  0  0  0  0  0  0  0
    1.7363   -0.0624    1.2831 H   0  0  0  0  0  0  0  0  0  0  0  0
    0.1835   -0.2477    2.1385 H   0  0  0  0  0  0  0  0  0  0  0  0
  1  2  1  0
  1 23  1  6
  1 24  1  0
  1 25  1  0
  2  3  1  1
  2 22  1  0
  2  4  1  0
  4  5  1  0
  4 26  1  6
  4 27  1  0
  5  6  1  0
  5 28  1  1
  5 29  1  0
  6  7  1  0
  6 30  1  1
  6 31  1  0
  8  7  1  6
  7 22  1  0
  8  9  2  0
  8 10  2  0
  8 11  1  0
 11 21  2  0
 11 12  1  0
 12 13  2  0
 12 32  1  0
 13 14  1  0
 13 15  1  0
 15 16  2  0
 15 33  1  0
 16 17  1  0
 16 21  1  0
 17 18  1  1
 17 19  1  0
 17 20  1  0
 21 34  1  0
 22 35  1  1
 22 36  1  0
M  END
$$$$
