ZINC000028207877
     RDKit          3D

 45 46  0  0  1  0  0  0  0  0999 V2000
   -0.0178    1.4608    0.0101 C   0  0  1  0  0  0  0  0  0  0  0  0
    0.0021   -0.0041    0.0020 N   0  0  0  0  0  0  0  0  0  0  0  0
    0.0241   -0.7433    1.2666 C   0  0  1  0  0  0  0  0  0  0  0  0
   -0.0004   -0.8243   -1.4366 S   0  0  1  0  0  0  0  0  0  0  0  0
   -0.5247   -2.1160   -1.1611 O   0  0  0  0  0  0  0  0  0  0  0  0
   -0.5660    0.0551   -2.3989 O   0  0  0  0  0  0  0  0  0  0  0  0
    1.6816   -1.0597   -1.9056 C   0  0  0  0  0  0  0  0  0  0  0  0
    2.3222   -0.1087   -2.6777 C   0  0  0  0  0  0  0  0  0  0  0  0
    3.6415   -0.2902   -3.0468 C   0  0  0  0  0  0  0  0  0  0  0  0
    4.3234   -1.4277   -2.6422 C   0  0  0  0  0  0  0  0  0  0  0  0
    5.6213   -1.6082   -3.0037 O   0  0  0  0  0  0  0  0  0  0  0  0
    6.2207   -0.5854   -3.8014 C   0  0  1  0  0  0  0  0  0  0  0  0
    7.6503   -0.9557   -4.1018 C   0  0  0  0  0  0  0  0  0  0  0  0
    8.1105   -1.9934   -3.6747 O   0  0  0  0  0  0  0  0  0  0  0  0
    8.4175   -0.1338   -4.8450 N   0  0  0  0  0  0  0  0  0  0  0  0
    9.8072   -0.4938   -5.1370 C   0  0  1  0  0  0  0  0  0  0  0  0
   10.4491    0.6013   -5.9911 C   0  0  1  0  0  0  0  0  0  0  0  0
   10.4207    1.5557   -5.4654 H   0  0  0  0  0  0  0  0  0  0  0  0
   11.9104    0.2233   -6.3410 C   0  0  1  0  0  0  0  0  0  0  0  0
   12.1228    1.0416   -7.6438 C   0  0  1  0  0  0  0  0  0  0  0  0
   10.7220    0.9963   -8.2912 C   0  0  1  0  0  0  0  0  0  0  0  0
    9.7742    0.7079   -7.2547 O   0  0  0  0  0  0  0  0  0  0  0  0
    3.6783   -2.3819   -1.8667 C   0  0  0  0  0  0  0  0  0  0  0  0
    4.5282   -3.8076   -1.3578 Cl  0  0  0  0  0  0  0  0  0  0  0  0
    2.3603   -2.1928   -1.4959 C   0  0  0  0  0  0  0  0  0  0  0  0
    1.0048    1.8381    0.0023 H   0  0  0  0  0  0  0  0  0  0  0  0
   -0.5450    1.8219   -0.8730 H   0  0  0  0  0  0  0  0  0  0  0  0
   -0.5280    1.8123    0.9069 H   0  0  0  0  0  0  0  0  0  0  0  0
   -0.9979   -0.9406    1.5900 H   0  0  0  0  0  0  0  0  0  0  0  0
    0.5496   -1.6879    1.1262 H   0  0  0  0  0  0  0  0  0  0  0  0
    0.5371   -0.1514    2.0246 H   0  0  0  0  0  0  0  0  0  0  0  0
    1.7908    0.7771   -2.9931 H   0  0  0  0  0  0  0  0  0  0  0  0
    4.1409    0.4532   -3.6503 H   0  0  0  0  0  0  0  0  0  0  0  0
    5.6682   -0.4823   -4.7353 H   0  0  0  0  0  0  0  0  0  0  0  0
    6.1966    0.3596   -3.2588 H   0  0  0  0  0  0  0  0  0  0  0  0
    8.0495    0.6961   -5.1866 H   0  0  0  0  0  0  0  0  0  0  0  0
   10.3597   -0.5969   -4.2031 H   0  0  0  0  0  0  0  0  0  0  0  0
    9.8314   -1.4388   -5.6796 H   0  0  0  0  0  0  0  0  0  0  0  0
   12.5976    0.5452   -5.5585 H   0  0  0  0  0  0  0  0  0  0  0  0
   12.0053   -0.8462   -6.5290 H   0  0  0  0  0  0  0  0  0  0  0  0
   12.4113    2.0675   -7.4148 H   0  0  0  0  0  0  0  0  0  0  0  0
   12.8626    0.5636   -8.2859 H   0  0  0  0  0  0  0  0  0  0  0  0
   10.4919    1.9613   -8.7426 H   0  0  0  0  0  0  0  0  0  0  0  0
   10.6906    0.2147   -9.0503 H   0  0  0  0  0  0  0  0  0  0  0  0
    1.8577   -2.9342   -0.8925 H   0  0  0  0  0  0  0  0  0  0  0  0
  1  2  1  0
  1 26  1  6
  1 27  1  0
  1 28  1  0
  2  3  1  0
  4  2  1  1
  3 29  1  1
  3 30  1  0
  3 31  1  0
  4  5  2  0
  4  6  2  0
  4  7  1  0
  7 25  2  0
  7  8  1  0
  8  9  2  0
  8 32  1  0
  9 10  1  0
  9 33  1  0
 10 11  1  0
 10 23  2  0
 11 12  1  0
 12 13  1  0
 12 34  1  6
 12 35  1  0
 13 14  2  0
 13 15  1  0
 15 16  1  0
 15 36  1  0
 16 17  1  0
 16 37  1  1
 16 38  1  0
 17 18  1  1
 17 22  1  0
 17 19  1  0
 19 20  1  0
 19 39  1  1
 19 40  1  0
 20 21  1  0
 20 41  1  1
 20 42  1  0
 21 22  1  0
 21 43  1  6
 21 44  1  0
 23 24  1  0
 23 25  1  0
 25 45  1  0
M  END
$$$$
