ZINC000426410422
     RDKit          3D

 43 45  0  0  0  0  0  0  0  0999 V2000
    0.3603   -0.9900    4.4873 N   0  0  0  0  0  0  0  0  0  0  0  0
    0.3898   -0.1601    3.7122 C   0  0  0  0  0  0  0  0  0  0  0  0
    0.4281    0.9154    2.7078 C   0  0  1  0  0  0  0  0  0  0  0  0
   -0.5884    1.9971    3.0801 C   0  0  1  0  0  0  0  0  0  0  0  0
   -0.5703    3.0976    2.0145 C   0  0  1  0  0  0  0  0  0  0  0  0
    0.8063    3.5889    1.8654 N   0  0  0  0  0  0  0  0  0  0  0  0
    1.0818    4.9037    1.9742 C   0  0  0  0  0  0  0  0  0  0  0  0
    0.1791    5.7031    2.1289 O   0  0  0  0  0  0  0  0  0  0  0  0
    2.4807    5.3734    1.9054 C   0  0  0  0  0  0  0  0  0  0  0  0
    3.3025    4.9699    0.8500 C   0  0  0  0  0  0  0  0  0  0  0  0
    4.6058    5.4086    0.7867 C   0  0  0  0  0  0  0  0  0  0  0  0
    5.1062    6.2554    1.7760 C   0  0  0  0  0  0  0  0  0  0  0  0
    6.5101    6.7273    1.7066 C   0  0  0  0  0  0  0  0  0  0  0  0
    7.3301    6.3310    0.6513 C   0  0  0  0  0  0  0  0  0  0  0  0
    8.6359    6.7738    0.5917 C   0  0  0  0  0  0  0  0  0  0  0  0
    9.1315    7.6088    1.5769 C   0  0  0  0  0  0  0  0  0  0  0  0
   10.5584    8.0884    1.5064 C   0  0  1  0  0  0  0  0  0  0  0  0
   10.6122    9.2881    0.7887 F   0  0  0  0  0  0  0  0  0  0  0  0
   11.0446    8.2976    2.8015 F   0  0  0  0  0  0  0  0  0  0  0  0
   11.3430    7.1249    0.8637 F   0  0  0  0  0  0  0  0  0  0  0  0
    8.3223    8.0057    2.6263 C   0  0  0  0  0  0  0  0  0  0  0  0
    7.0134    7.5735    2.6935 C   0  0  0  0  0  0  0  0  0  0  0  0
    4.2865    6.6589    2.8302 C   0  0  0  0  0  0  0  0  0  0  0  0
    2.9811    6.2261    2.8925 C   0  0  0  0  0  0  0  0  0  0  0  0
    1.8770    2.6195    1.5959 C   0  0  1  0  0  0  0  0  0  0  0  0
    1.8315    1.5244    2.6662 C   0  0  1  0  0  0  0  0  0  0  0  0
    0.1805    0.5064    1.7283 H   0  0  0  0  0  0  0  0  0  0  0  0
   -1.5845    1.5578    3.1324 H   0  0  0  0  0  0  0  0  0  0  0  0
   -0.3272    2.4240    4.0484 H   0  0  0  0  0  0  0  0  0  0  0  0
   -0.9185    2.6922    1.0646 H   0  0  0  0  0  0  0  0  0  0  0  0
   -1.2191    3.9169    2.3243 H   0  0  0  0  0  0  0  0  0  0  0  0
    2.9155    4.3138    0.0844 H   0  0  0  0  0  0  0  0  0  0  0  0
    5.2413    5.0968   -0.0290 H   0  0  0  0  0  0  0  0  0  0  0  0
    6.9444    5.6786   -0.1181 H   0  0  0  0  0  0  0  0  0  0  0  0
    9.2721    6.4674   -0.2255 H   0  0  0  0  0  0  0  0  0  0  0  0
    8.7145    8.6580    3.3925 H   0  0  0  0  0  0  0  0  0  0  0  0
    6.3824    7.8843    3.5131 H   0  0  0  0  0  0  0  0  0  0  0  0
    4.6748    7.3145    3.5955 H   0  0  0  0  0  0  0  0  0  0  0  0
    2.3466    6.5388    3.7085 H   0  0  0  0  0  0  0  0  0  0  0  0
    1.7284    2.1750    0.6118 H   0  0  0  0  0  0  0  0  0  0  0  0
    2.8430    3.1233    1.6295 H   0  0  0  0  0  0  0  0  0  0  0  0
    2.0699    1.9557    3.6384 H   0  0  0  0  0  0  0  0  0  0  0  0
    2.5577    0.7485    2.4239 H   0  0  0  0  0  0  0  0  0  0  0  0
  1  2  3  0
  2  3  1  0
  3 26  1  0
  3  4  1  0
  3 27  1  6
  4  5  1  0
  4 28  1  1
  4 29  1  0
  5  6  1  0
  5 30  1  6
  5 31  1  0
  6  7  1  0
  6 25  1  0
  7  8  2  0
  7  9  1  0
  9 24  2  0
  9 10  1  0
 10 11  2  0
 10 32  1  0
 11 12  1  0
 11 33  1  0
 12 13  1  0
 12 23  2  0
 13 22  2  0
 13 14  1  0
 14 15  2  0
 14 34  1  0
 15 16  1  0
 15 35  1  0
 16 17  1  0
 16 21  2  0
 17 18  1  6
 17 19  1  0
 17 20  1  0
 21 22  1  0
 21 36  1  0
 22 37  1  0
 23 24  1  0
 23 38  1  0
 24 39  1  0
 25 26  1  0
 25 40  1  6
 25 41  1  0
 26 42  1  1
 26 43  1  0
M  END
$$$$
