ZINC000095990980
     RDKit          3D

 36 37  0  0  1  0  0  0  0  0999 V2000
   -0.0187    1.5258    0.0104 C   0  0  1  0  0  0  0  0  0  0  0  0
    0.0021   -0.0041    0.0020 C   0  0  2  0  0  0  0  0  0  0  0  0
    0.5121   -0.3563   -0.8946 H   0  0  0  0  0  0  0  0  0  0  0  0
   -1.4357   -0.5357    0.0154 C   0  0  1  0  0  0  0  0  0  0  0  0
   -1.3891   -1.9954    0.1960 N   0  0  0  0  0  0  0  0  0  0  0  0
   -2.2247   -3.0065   -0.8147 S   0  0  1  0  0  0  0  0  0  0  0  0
   -2.4345   -4.2122   -0.0926 O   0  0  0  0  0  0  0  0  0  0  0  0
   -3.2841   -2.2366   -1.3664 O   0  0  0  0  0  0  0  0  0  0  0  0
   -1.1523   -3.4086   -2.1537 C   0  0  0  0  0  0  0  0  0  0  0  0
   -1.1409   -2.6116   -3.2825 C   0  0  0  0  0  0  0  0  0  0  0  0
   -0.2929   -2.9365   -4.3305 C   0  0  0  0  0  0  0  0  0  0  0  0
    0.5152   -4.0557   -4.2028 C   0  0  0  0  0  0  0  0  0  0  0  0
    1.4540   -4.4498   -5.3138 C   0  0  1  0  0  0  0  0  0  0  0  0
    2.6917   -3.8267   -5.1215 F   0  0  0  0  0  0  0  0  0  0  0  0
    1.6251   -5.8383   -5.3091 F   0  0  0  0  0  0  0  0  0  0  0  0
    0.9166   -4.0504   -6.5421 F   0  0  0  0  0  0  0  0  0  0  0  0
    0.4492   -4.8053   -3.0433 C   0  0  0  0  0  0  0  0  0  0  0  0
   -0.3659   -4.4635   -2.0647 N   0  0  0  0  0  0  0  0  0  0  0  0
   -0.5783   -2.5300    1.3016 C   0  0  1  0  0  0  0  0  0  0  0  0
    0.8176   -1.9012    1.2255 C   0  0  2  0  0  0  0  0  0  0  0  0
    1.3309   -2.2611    0.3338 H   0  0  0  0  0  0  0  0  0  0  0  0
    1.6209   -2.2882    2.4688 C   0  0  1  0  0  0  0  0  0  0  0  0
    0.6913   -0.4787    1.1611 O   0  0  0  0  0  0  0  0  0  0  0  0
    1.0039    1.9031    0.0027 H   0  0  0  0  0  0  0  0  0  0  0  0
   -0.5459    1.8868   -0.8726 H   0  0  0  0  0  0  0  0  0  0  0  0
   -0.5289    1.8773    0.9072 H   0  0  0  0  0  0  0  0  0  0  0  0
   -1.9874   -0.0814    0.8384 H   0  0  0  0  0  0  0  0  0  0  0  0
   -1.9238   -0.2981   -0.9298 H   0  0  0  0  0  0  0  0  0  0  0  0
   -1.7846   -1.7469   -3.3479 H   0  0  0  0  0  0  0  0  0  0  0  0
   -0.2629   -2.3322   -5.2251 H   0  0  0  0  0  0  0  0  0  0  0  0
    1.0751   -5.6788   -2.9361 H   0  0  0  0  0  0  0  0  0  0  0  0
   -1.0437   -2.2765    2.2541 H   0  0  0  0  0  0  0  0  0  0  0  0
   -0.4987   -3.6131    1.2081 H   0  0  0  0  0  0  0  0  0  0  0  0
    1.7137   -3.3731    2.5183 H   0  0  0  0  0  0  0  0  0  0  0  0
    2.6133   -1.8407    2.4140 H   0  0  0  0  0  0  0  0  0  0  0  0
    1.1079   -1.9264    3.3599 H   0  0  0  0  0  0  0  0  0  0  0  0
  1  2  1  0
  1 24  1  6
  1 25  1  0
  1 26  1  0
  2  3  1  6
  2 23  1  0
  2  4  1  0
  4  5  1  0
  4 27  1  1
  4 28  1  0
  6  5  1  1
  5 19  1  0
  6  7  2  0
  6  8  2  0
  6  9  1  0
  9 18  2  0
  9 10  1  0
 10 11  2  0
 10 29  1  0
 11 12  1  0
 11 30  1  0
 12 13  1  0
 12 17  2  0
 13 14  1  1
 13 15  1  0
 13 16  1  0
 17 18  1  0
 17 31  1  0
 19 20  1  0
 19 32  1  1
 19 33  1  0
 20 21  1  6
 20 22  1  0
 20 23  1  0
 22 34  1  1
 22 35  1  0
 22 36  1  0
M  END
$$$$
