ZINC000096479544
     RDKit          3D

 43 44  0  0  1  0  0  0  0  0999 V2000
   -0.0187    1.5258    0.0104 C   0  0  1  0  0  0  0  0  0  0  0  0
    0.0021   -0.0041    0.0020 C   0  0  1  0  0  0  0  0  0  0  0  0
    0.5293   -0.3651    0.8851 H   0  0  0  0  0  0  0  0  0  0  0  0
   -1.4333   -0.5336    0.0129 C   0  0  1  0  0  0  0  0  0  0  0  0
   -2.1001   -0.1511    1.3091 C   0  0  0  0  0  0  0  0  0  0  0  0
   -1.4875    0.4827    2.1421 O   0  0  0  0  0  0  0  0  0  0  0  0
   -3.3771   -0.5133    1.5425 N   0  0  0  0  0  0  0  0  0  0  0  0
   -4.1301   -1.2864    0.5456 C   0  0  1  0  0  0  0  0  0  0  0  0
   -4.6982   -2.5393    1.2196 C   0  0  1  0  0  0  0  0  0  0  0  0
   -5.5171   -2.1276    2.4451 C   0  0  1  0  0  0  0  0  0  0  0  0
   -4.6117   -1.4082    3.4476 C   0  0  2  0  0  0  0  0  0  0  0  0
   -3.7937   -2.0678    3.7374 H   0  0  0  0  0  0  0  0  0  0  0  0
   -5.4116   -1.0325    4.6683 C   0  0  0  0  0  0  0  0  0  0  0  0
   -5.9547   -1.8993    5.3317 O   0  0  0  0  0  0  0  0  0  0  0  0
   -5.5155    0.1382    4.9924 O   0  0  0  0  0  0  0  0  0  0  0  0
   -4.0407   -0.1477    2.8014 C   0  0  1  0  0  0  0  0  0  0  0  0
    0.7074   -0.4901   -1.2379 C   0  0  0  0  0  0  0  0  0  0  0  0
    0.2220   -0.1511   -2.4870 C   0  0  0  0  0  0  0  0  0  0  0  0
    0.8690   -0.5969   -3.6243 C   0  0  0  0  0  0  0  0  0  0  0  0
    2.0018   -1.3813   -3.5125 C   0  0  0  0  0  0  0  0  0  0  0  0
    2.7068   -1.8677   -4.7524 C   0  0  1  0  0  0  0  0  0  0  0  0
    3.6758   -0.9337   -5.1346 F   0  0  0  0  0  0  0  0  0  0  0  0
    3.3219   -3.0960   -4.4875 F   0  0  0  0  0  0  0  0  0  0  0  0
    1.7773   -2.0249   -5.7861 F   0  0  0  0  0  0  0  0  0  0  0  0
    2.4880   -1.7191   -2.2634 C   0  0  0  0  0  0  0  0  0  0  0  0
    1.8432   -1.2701   -1.1261 C   0  0  0  0  0  0  0  0  0  0  0  0
    1.0039    1.9031    0.0027 H   0  0  0  0  0  0  0  0  0  0  0  0
   -0.5459    1.8868   -0.8726 H   0  0  0  0  0  0  0  0  0  0  0  0
   -0.5289    1.8773    0.9072 H   0  0  0  0  0  0  0  0  0  0  0  0
   -1.9862   -0.1019   -0.8214 H   0  0  0  0  0  0  0  0  0  0  0  0
   -1.4207   -1.6194   -0.0826 H   0  0  0  0  0  0  0  0  0  0  0  0
   -4.9468   -0.6801    0.1538 H   0  0  0  0  0  0  0  0  0  0  0  0
   -3.4662   -1.5784   -0.2681 H   0  0  0  0  0  0  0  0  0  0  0  0
   -5.3384   -3.0721    0.5165 H   0  0  0  0  0  0  0  0  0  0  0  0
   -3.8794   -3.1882    1.5304 H   0  0  0  0  0  0  0  0  0  0  0  0
   -6.3209   -1.4590    2.1369 H   0  0  0  0  0  0  0  0  0  0  0  0
   -5.9428   -3.0156    2.9124 H   0  0  0  0  0  0  0  0  0  0  0  0
   -3.3193    0.3138    3.4756 H   0  0  0  0  0  0  0  0  0  0  0  0
   -4.8485    0.5534    2.5916 H   0  0  0  0  0  0  0  0  0  0  0  0
   -0.6631    0.4617   -2.5743 H   0  0  0  0  0  0  0  0  0  0  0  0
    0.4893   -0.3327   -4.6002 H   0  0  0  0  0  0  0  0  0  0  0  0
    3.3733   -2.3316   -2.1760 H   0  0  0  0  0  0  0  0  0  0  0  0
    2.2231   -1.5340   -0.1501 H   0  0  0  0  0  0  0  0  0  0  0  0
  1  2  1  0
  1 27  1  6
  1 28  1  0
  1 29  1  0
  2  3  1  1
  2  4  1  0
  2 17  1  0
  4  5  1  0
  4 30  1  6
  4 31  1  0
  5  6  2  0
  5  7  1  0
  7 16  1  0
  7  8  1  0
  8  9  1  0
  8 32  1  6
  8 33  1  0
  9 10  1  0
  9 34  1  6
  9 35  1  0
 10 11  1  0
 10 36  1  6
 10 37  1  0
 11 12  1  1
 11 13  1  0
 11 16  1  0
 13 14  2  0
 13 15  1  0
 16 38  1  1
 16 39  1  0
 17 26  2  0
 17 18  1  0
 18 19  2  0
 18 40  1  0
 19 20  1  0
 19 41  1  0
 20 21  1  0
 20 25  2  0
 21 22  1  6
 21 23  1  0
 21 24  1  0
 25 26  1  0
 25 42  1  0
 26 43  1  0
M  END
$$$$
