ZINC000045974621
     RDKit          3D

 55 56  0  0  0  0  0  0  0  0999 V2000
   -0.0187    1.5258    0.0104 C   0  0  1  0  0  0  0  0  0  0  0  0
    0.0021   -0.0041    0.0020 C   0  0  1  0  0  0  0  0  0  0  0  0
    0.7074   -0.4901   -1.2379 C   0  0  0  0  0  0  0  0  0  0  0  0
   -0.0105   -0.7185   -2.3969 C   0  0  0  0  0  0  0  0  0  0  0  0
    0.6365   -1.1643   -3.5342 C   0  0  0  0  0  0  0  0  0  0  0  0
    2.0016   -1.3812   -3.5126 C   0  0  0  0  0  0  0  0  0  0  0  0
    2.8262   -1.9500   -4.9622 S   0  0  1  0  0  0  0  0  0  0  0  0
    4.0170   -2.5884   -4.5220 O   0  0  0  0  0  0  0  0  0  0  0  0
    1.8423   -2.6013   -5.7541 O   0  0  0  0  0  0  0  0  0  0  0  0
    3.3006   -0.6112   -5.8135 N   0  0  0  0  0  0  0  0  0  0  0  0
    4.6143   -0.0125   -5.5646 C   0  0  1  0  0  0  0  0  0  0  0  0
    5.6247   -0.5620   -6.5736 C   0  0  1  0  0  0  0  0  0  0  0  0
    6.9967    0.0633   -6.3137 C   0  0  1  0  0  0  0  0  0  0  0  0
    7.9403   -0.4500   -7.2562 O   0  0  0  0  0  0  0  0  0  0  0  0
    9.2610    0.0729   -7.0999 C   0  0  1  0  0  0  0  0  0  0  0  0
    2.4067   -0.0255   -6.8155 C   0  0  1  0  0  0  0  0  0  0  0  0
    1.6169    1.0953   -6.1901 C   0  0  0  0  0  0  0  0  0  0  0  0
    1.7843    1.3771   -5.0224 O   0  0  0  0  0  0  0  0  0  0  0  0
    0.7245    1.7846   -6.9284 N   0  0  0  0  0  0  0  0  0  0  0  0
    0.5017    1.4553   -8.3445 C   0  0  1  0  0  0  0  0  0  0  0  0
    0.6191    2.7423   -9.1679 C   0  0  1  0  0  0  0  0  0  0  0  0
   -0.2880    3.7574   -8.6160 N   0  0  0  0  0  0  0  0  0  0  0  0
    0.0870    4.1167   -7.2419 C   0  0  1  0  0  0  0  0  0  0  0  0
   -0.0566    2.8820   -6.3379 C   0  0  1  0  0  0  0  0  0  0  0  0
    2.7197   -1.1515   -2.3540 C   0  0  0  0  0  0  0  0  0  0  0  0
    2.0733   -0.7021   -1.2178 C   0  0  0  0  0  0  0  0  0  0  0  0
    1.0039    1.9031    0.0027 H   0  0  0  0  0  0  0  0  0  0  0  0
   -0.5459    1.8868   -0.8726 H   0  0  0  0  0  0  0  0  0  0  0  0
   -0.5289    1.8773    0.9072 H   0  0  0  0  0  0  0  0  0  0  0  0
    0.5293   -0.3651    0.8851 H   0  0  0  0  0  0  0  0  0  0  0  0
   -1.0205   -0.3814    0.0098 H   0  0  0  0  0  0  0  0  0  0  0  0
   -1.0770   -0.5490   -2.4137 H   0  0  0  0  0  0  0  0  0  0  0  0
    0.0755   -1.3434   -4.4395 H   0  0  0  0  0  0  0  0  0  0  0  0
    4.5463    1.0702   -5.6714 H   0  0  0  0  0  0  0  0  0  0  0  0
    4.9400   -0.2581   -4.5538 H   0  0  0  0  0  0  0  0  0  0  0  0
    5.6927   -1.6446   -6.4668 H   0  0  0  0  0  0  0  0  0  0  0  0
    5.2990   -0.3164   -7.5844 H   0  0  0  0  0  0  0  0  0  0  0  0
    6.9287    1.1459   -6.4205 H   0  0  0  0  0  0  0  0  0  0  0  0
    7.3223   -0.1824   -5.3029 H   0  0  0  0  0  0  0  0  0  0  0  0
    9.9168   -0.3656   -7.8520 H   0  0  0  0  0  0  0  0  0  0  0  0
    9.2400    1.1557   -7.2230 H   0  0  0  0  0  0  0  0  0  0  0  0
    9.6336   -0.1725   -6.1054 H   0  0  0  0  0  0  0  0  0  0  0  0
    2.9965    0.3644   -7.6450 H   0  0  0  0  0  0  0  0  0  0  0  0
    1.7229   -0.7903   -7.1837 H   0  0  0  0  0  0  0  0  0  0  0  0
    1.2528    0.7385   -8.6763 H   0  0  0  0  0  0  0  0  0  0  0  0
   -0.4944    1.0304   -8.4692 H   0  0  0  0  0  0  0  0  0  0  0  0
    1.6446    3.1091   -9.1251 H   0  0  0  0  0  0  0  0  0  0  0  0
    0.3486    2.5374  -10.2037 H   0  0  0  0  0  0  0  0  0  0  0  0
   -0.3195    4.5742   -9.2075 H   0  0  0  0  0  0  0  0  0  0  0  0
    1.1200    4.4644   -7.2259 H   0  0  0  0  0  0  0  0  0  0  0  0
   -0.5693    4.9085   -6.8809 H   0  0  0  0  0  0  0  0  0  0  0  0
   -1.1067    2.5972   -6.2712 H   0  0  0  0  0  0  0  0  0  0  0  0
    0.3279    3.1093   -5.3437 H   0  0  0  0  0  0  0  0  0  0  0  0
    3.7863   -1.3207   -2.3373 H   0  0  0  0  0  0  0  0  0  0  0  0
    2.6344   -0.5226   -0.3126 H   0  0  0  0  0  0  0  0  0  0  0  0
  1  2  1  0
  1 27  1  6
  1 28  1  0
  1 29  1  0
  2  3  1  0
  2 30  1  1
  2 31  1  0
  3 26  2  0
  3  4  1  0
  4  5  2  0
  4 32  1  0
  5  6  1  0
  5 33  1  0
  6  7  1  0
  6 25  2  0
  7  8  2  0
  7  9  2  0
  7 10  1  6
 10 11  1  0
 10 16  1  0
 11 12  1  0
 11 34  1  1
 11 35  1  0
 12 13  1  0
 12 36  1  6
 12 37  1  0
 13 14  1  0
 13 38  1  1
 13 39  1  0
 14 15  1  0
 15 40  1  6
 15 41  1  0
 15 42  1  0
 16 17  1  0
 16 43  1  6
 16 44  1  0
 17 18  2  0
 17 19  1  0
 19 24  1  0
 19 20  1  0
 20 21  1  0
 20 45  1  6
 20 46  1  0
 21 22  1  0
 21 47  1  6
 21 48  1  0
 22 23  1  0
 22 49  1  0
 23 24  1  0
 23 50  1  6
 23 51  1  0
 24 52  1  1
 24 53  1  0
 25 26  1  0
 25 54  1  0
 26 55  1  0
M  END
$$$$
