ZINC000075144295
     RDKit          3D

 44 45  0  0  1  0  0  0  0  0999 V2000
    0.1603    2.4216   -1.5541 C   0  0  1  0  0  0  0  0  0  0  0  0
    0.5678    1.0211   -1.4177 N   0  0  0  0  0  0  0  0  0  0  0  0
    1.8793    0.5888   -1.9071 C   0  0  1  0  0  0  0  0  0  0  0  0
   -0.4539   -0.0734   -0.7103 S   0  0  1  0  0  0  0  0  0  0  0  0
    0.3632   -1.1305   -0.2263 O   0  0  0  0  0  0  0  0  0  0  0  0
   -1.3300    0.6749    0.1214 O   0  0  0  0  0  0  0  0  0  0  0  0
   -1.4498   -0.7607   -1.9911 C   0  0  0  0  0  0  0  0  0  0  0  0
   -2.6486   -0.1614   -2.3298 C   0  0  0  0  0  0  0  0  0  0  0  0
   -3.4338   -0.6971   -3.3345 C   0  0  0  0  0  0  0  0  0  0  0  0
   -3.0214   -1.8350   -4.0030 C   0  0  0  0  0  0  0  0  0  0  0  0
   -3.7882   -2.3586   -4.9844 F   0  0  0  0  0  0  0  0  0  0  0  0
   -1.8156   -2.4396   -3.6637 C   0  0  0  0  0  0  0  0  0  0  0  0
   -1.3941   -3.5923   -4.3381 N   0  0  0  0  0  0  0  0  0  0  0  0
   -0.5426   -4.4493   -3.7406 C   0  0  0  0  0  0  0  0  0  0  0  0
   -0.2198   -4.2762   -2.5843 O   0  0  0  0  0  0  0  0  0  0  0  0
    0.0085   -5.6225   -4.5092 C   0  0  1  0  0  0  0  0  0  0  0  0
    0.9428   -6.4303   -3.6062 C   0  0  1  0  0  0  0  0  0  0  0  0
    1.5024   -7.6215   -4.3865 C   0  0  1  0  0  0  0  0  0  0  0  0
    1.9730   -7.2813   -5.3089 H   0  0  0  0  0  0  0  0  0  0  0  0
    2.5216   -8.4019   -3.5188 C   0  0  1  0  0  0  0  0  0  0  0  0
    2.4489   -9.8089   -4.1724 C   0  0  1  0  0  0  0  0  0  0  0  0
    0.9654   -9.8998   -4.5900 C   0  0  1  0  0  0  0  0  0  0  0  0
    0.4567   -8.5622   -4.6778 O   0  0  0  0  0  0  0  0  0  0  0  0
   -1.0285   -1.8947   -2.6590 C   0  0  0  0  0  0  0  0  0  0  0  0
    0.9565    2.9860   -2.0396 H   0  0  0  0  0  0  0  0  0  0  0  0
   -0.7458    2.4793   -2.1572 H   0  0  0  0  0  0  0  0  0  0  0  0
   -0.0329    2.8416   -0.5670 H   0  0  0  0  0  0  0  0  0  0  0  0
    2.6161    0.6907   -1.1104 H   0  0  0  0  0  0  0  0  0  0  0  0
    1.8246   -0.4539   -2.2202 H   0  0  0  0  0  0  0  0  0  0  0  0
    2.1728    1.2078   -2.7549 H   0  0  0  0  0  0  0  0  0  0  0  0
   -2.9729    0.7271   -1.8085 H   0  0  0  0  0  0  0  0  0  0  0  0
   -4.3698   -0.2265   -3.5968 H   0  0  0  0  0  0  0  0  0  0  0  0
   -1.7151   -3.7739   -5.2353 H   0  0  0  0  0  0  0  0  0  0  0  0
   -0.8129   -6.2569   -4.8423 H   0  0  0  0  0  0  0  0  0  0  0  0
    0.5630   -5.2614   -5.3754 H   0  0  0  0  0  0  0  0  0  0  0  0
    1.7643   -5.7960   -3.2731 H   0  0  0  0  0  0  0  0  0  0  0  0
    0.3884   -6.7915   -2.7400 H   0  0  0  0  0  0  0  0  0  0  0  0
    3.5215   -7.9775   -3.6100 H   0  0  0  0  0  0  0  0  0  0  0  0
    2.2051   -8.4362   -2.4763 H   0  0  0  0  0  0  0  0  0  0  0  0
    3.1014   -9.8660   -5.0436 H   0  0  0  0  0  0  0  0  0  0  0  0
    2.6966  -10.5858   -3.4492 H   0  0  0  0  0  0  0  0  0  0  0  0
    0.8838  -10.3894   -5.5604 H   0  0  0  0  0  0  0  0  0  0  0  0
    0.4047  -10.4615   -3.8428 H   0  0  0  0  0  0  0  0  0  0  0  0
   -0.0917   -2.3617   -2.3932 H   0  0  0  0  0  0  0  0  0  0  0  0
  1  2  1  0
  1 25  1  6
  1 26  1  0
  1 27  1  0
  2  3  1  0
  4  2  1  6
  3 28  1  1
  3 29  1  0
  3 30  1  0
  4  5  2  0
  4  6  2  0
  4  7  1  0
  7 24  2  0
  7  8  1  0
  8  9  2  0
  8 31  1  0
  9 10  1  0
  9 32  1  0
 10 11  1  0
 10 12  2  0
 12 13  1  0
 12 24  1  0
 13 14  1  0
 13 33  1  0
 14 15  2  0
 14 16  1  0
 16 17  1  0
 16 34  1  6
 16 35  1  0
 17 18  1  0
 17 36  1  1
 17 37  1  0
 18 19  1  6
 18 23  1  0
 18 20  1  0
 20 21  1  0
 20 38  1  1
 20 39  1  0
 21 22  1  0
 21 40  1  6
 21 41  1  0
 22 23  1  0
 22 42  1  6
 22 43  1  0
 24 44  1  0
M  END
$$$$
