ZINC000408613871
     RDKit          3D

 62 64  0  0  1  0  0  0  0  0999 V2000
   -3.5573   -9.2274   -0.1152 C   0  0  1  0  0  0  0  0  0  0  0  0
   -2.6433   -8.0296   -0.0861 C   0  0  0  0  0  0  0  0  0  0  0  0
   -2.3111   -7.4427    1.1206 C   0  0  0  0  0  0  0  0  0  0  0  0
   -1.4727   -6.3440    1.1472 C   0  0  0  0  0  0  0  0  0  0  0  0
   -0.9661   -5.8324   -0.0328 C   0  0  0  0  0  0  0  0  0  0  0  0
    0.1021   -4.4316    0.0011 S   0  0  1  0  0  0  0  0  0  0  0  0
   -0.0100   -3.8105   -1.2721 O   0  0  0  0  0  0  0  0  0  0  0  0
   -0.1626   -3.7546    1.2221 O   0  0  0  0  0  0  0  0  0  0  0  0
    1.6535   -5.0006    0.1087 N   0  0  0  0  0  0  0  0  0  0  0  0
    2.2155   -5.3532    1.4149 C   0  0  1  0  0  0  0  0  0  0  0  0
    2.0395   -6.8305    1.6553 C   0  0  0  0  0  0  0  0  0  0  0  0
    1.4980   -7.5208    0.8179 O   0  0  0  0  0  0  0  0  0  0  0  0
    2.4839   -7.3845    2.8007 N   0  0  0  0  0  0  0  0  0  0  0  0
    2.3128   -8.8206    3.0344 C   0  0  1  0  0  0  0  0  0  0  0  0
    1.3707   -9.1503    2.5964 H   0  0  0  0  0  0  0  0  0  0  0  0
    3.4705   -9.5839    2.3880 C   0  0  1  0  0  0  0  0  0  0  0  0
    2.2988   -9.0943    4.5397 C   0  0  1  0  0  0  0  0  0  0  0  0
    1.0699   -8.4329    5.1668 C   0  0  1  0  0  0  0  0  0  0  0  0
    1.0561   -8.7025    6.6495 C   0  0  0  0  0  0  0  0  0  0  0  0
    0.4215   -9.8277    7.1415 C   0  0  0  0  0  0  0  0  0  0  0  0
    0.4088  -10.0750    8.5015 C   0  0  0  0  0  0  0  0  0  0  0  0
    1.0311   -9.1973    9.3694 C   0  0  0  0  0  0  0  0  0  0  0  0
    1.6665   -8.0725    8.8773 C   0  0  0  0  0  0  0  0  0  0  0  0
    1.6828   -7.8275    7.5169 C   0  0  0  0  0  0  0  0  0  0  0  0
    2.4641   -5.1515   -1.1023 C   0  0  1  0  0  0  0  0  0  0  0  0
    3.3251   -3.9284   -1.2860 C   0  0  0  0  0  0  0  0  0  0  0  0
    2.8966   -2.8976   -2.1012 C   0  0  0  0  0  0  0  0  0  0  0  0
    3.6864   -1.7757   -2.2698 C   0  0  0  0  0  0  0  0  0  0  0  0
    4.9045   -1.6844   -1.6228 C   0  0  0  0  0  0  0  0  0  0  0  0
    5.3327   -2.7149   -0.8069 C   0  0  0  0  0  0  0  0  0  0  0  0
    4.5410   -3.8349   -0.6349 C   0  0  0  0  0  0  0  0  0  0  0  0
   -1.2972   -6.4201   -1.2394 C   0  0  0  0  0  0  0  0  0  0  0  0
   -2.1325   -7.5212   -1.2658 C   0  0  0  0  0  0  0  0  0  0  0  0
   -2.9644  -10.1388   -0.0384 H   0  0  0  0  0  0  0  0  0  0  0  0
   -4.2524   -9.1744    0.7228 H   0  0  0  0  0  0  0  0  0  0  0  0
   -4.1163   -9.2353   -1.0509 H   0  0  0  0  0  0  0  0  0  0  0  0
   -2.7069   -7.8424    2.0425 H   0  0  0  0  0  0  0  0  0  0  0  0
   -1.2138   -5.8851    2.0899 H   0  0  0  0  0  0  0  0  0  0  0  0
    3.2770   -5.1062    1.4324 H   0  0  0  0  0  0  0  0  0  0  0  0
    1.6994   -4.7941    2.1954 H   0  0  0  0  0  0  0  0  0  0  0  0
    2.9169   -6.8324    3.4704 H   0  0  0  0  0  0  0  0  0  0  0  0
    3.3432  -10.6524    2.5618 H   0  0  0  0  0  0  0  0  0  0  0  0
    3.4805   -9.3890    1.3156 H   0  0  0  0  0  0  0  0  0  0  0  0
    4.4126   -9.2543    2.8260 H   0  0  0  0  0  0  0  0  0  0  0  0
    2.2608  -10.1697    4.7131 H   0  0  0  0  0  0  0  0  0  0  0  0
    3.2022   -8.6850    4.9918 H   0  0  0  0  0  0  0  0  0  0  0  0
    1.1078   -7.3575    4.9934 H   0  0  0  0  0  0  0  0  0  0  0  0
    0.1665   -8.8422    4.7147 H   0  0  0  0  0  0  0  0  0  0  0  0
   -0.0647  -10.5134    6.4634 H   0  0  0  0  0  0  0  0  0  0  0  0
   -0.0876  -10.9537    8.8860 H   0  0  0  0  0  0  0  0  0  0  0  0
    1.0206   -9.3901   10.4320 H   0  0  0  0  0  0  0  0  0  0  0  0
    2.1524   -7.3866    9.5554 H   0  0  0  0  0  0  0  0  0  0  0  0
    2.1792   -6.9488    7.1324 H   0  0  0  0  0  0  0  0  0  0  0  0
    3.0994   -6.0321   -1.0069 H   0  0  0  0  0  0  0  0  0  0  0  0
    1.8091   -5.2678   -1.9657 H   0  0  0  0  0  0  0  0  0  0  0  0
    1.9448   -2.9689   -2.6067 H   0  0  0  0  0  0  0  0  0  0  0  0
    3.3518   -0.9706   -2.9072 H   0  0  0  0  0  0  0  0  0  0  0  0
    5.5219   -0.8082   -1.7550 H   0  0  0  0  0  0  0  0  0  0  0  0
    6.2846   -2.6437   -0.3016 H   0  0  0  0  0  0  0  0  0  0  0  0
    4.8755   -4.6400    0.0025 H   0  0  0  0  0  0  0  0  0  0  0  0
   -0.9011   -6.0206   -2.1613 H   0  0  0  0  0  0  0  0  0  0  0  0
   -2.3912   -7.9803   -2.2085 H   0  0  0  0  0  0  0  0  0  0  0  0
  1  2  1  0
  1 34  1  1
  1 35  1  0
  1 36  1  0
  2 33  2  0
  2  3  1  0
  3  4  2  0
  3 37  1  0
  4  5  1  0
  4 38  1  0
  5  6  1  0
  5 32  2  0
  6  7  2  0
  6  8  2  0
  6  9  1  1
  9 10  1  0
  9 25  1  0
 10 11  1  0
 10 39  1  6
 10 40  1  0
 11 12  2  0
 11 13  1  0
 13 14  1  0
 13 41  1  0
 14 15  1  6
 14 16  1  0
 14 17  1  0
 16 42  1  6
 16 43  1  0
 16 44  1  0
 17 18  1  0
 17 45  1  6
 17 46  1  0
 18 19  1  0
 18 47  1  1
 18 48  1  0
 19 24  2  0
 19 20  1  0
 20 21  2  0
 20 49  1  0
 21 22  1  0
 21 50  1  0
 22 23  2  0
 22 51  1  0
 23 24  1  0
 23 52  1  0
 24 53  1  0
 25 26  1  0
 25 54  1  1
 25 55  1  0
 26 31  2  0
 26 27  1  0
 27 28  2  0
 27 56  1  0
 28 29  1  0
 28 57  1  0
 29 30  2  0
 29 58  1  0
 30 31  1  0
 30 59  1  0
 31 60  1  0
 32 33  1  0
 32 61  1  0
 33 62  1  0
M  END
$$$$
