ZINC000012738354
     RDKit          3D

 48 50  0  0  1  0  0  0  0  0999 V2000
   -0.0173    1.4248    0.0099 C   0  0  1  0  0  0  0  0  0  0  0  0
    0.0021   -0.0041    0.0020 O   0  0  0  0  0  0  0  0  0  0  0  0
    0.6062   -0.6075   -1.0564 C   0  0  0  0  0  0  0  0  0  0  0  0
    1.1727    0.1587   -2.0618 C   0  0  0  0  0  0  0  0  0  0  0  0
    1.7870   -0.4565   -3.1372 C   0  0  0  0  0  0  0  0  0  0  0  0
    1.8372   -1.8356   -3.2121 C   0  0  0  0  0  0  0  0  0  0  0  0
    2.5075   -2.5009   -4.3865 C   0  0  1  0  0  0  0  0  0  0  0  0
    2.7597   -3.5309   -4.1345 H   0  0  0  0  0  0  0  0  0  0  0  0
    1.5683   -2.4749   -5.6108 C   0  0  1  0  0  0  0  0  0  0  0  0
    2.5410   -2.2067   -6.7894 C   0  0  1  0  0  0  0  0  0  0  0  0
    3.5730   -1.2574   -6.1310 C   0  0  1  0  0  0  0  0  0  0  0  0
    3.7256   -1.7627   -4.7511 N   0  0  0  0  0  0  0  0  0  0  0  0
    5.0461   -1.5313   -3.7790 S   0  0  1  0  0  0  0  0  0  0  0  0
    5.0317   -2.5845   -2.8251 O   0  0  0  0  0  0  0  0  0  0  0  0
    6.1441   -1.2830   -4.6461 O   0  0  0  0  0  0  0  0  0  0  0  0
    4.7763   -0.0409   -2.8786 C   0  0  0  0  0  0  0  0  0  0  0  0
    5.1982    1.1677   -3.4002 C   0  0  0  0  0  0  0  0  0  0  0  0
    4.9865    2.3370   -2.6939 C   0  0  0  0  0  0  0  0  0  0  0  0
    4.3525    2.2976   -1.4661 C   0  0  0  0  0  0  0  0  0  0  0  0
    4.1221    3.5723   -0.6958 C   0  0  1  0  0  0  0  0  0  0  0  0
    2.8846    4.1170   -1.0549 F   0  0  0  0  0  0  0  0  0  0  0  0
    4.1298    3.2962    0.6756 F   0  0  0  0  0  0  0  0  0  0  0  0
    5.1381    4.4869   -0.9931 F   0  0  0  0  0  0  0  0  0  0  0  0
    3.9293    1.0891   -0.9451 C   0  0  0  0  0  0  0  0  0  0  0  0
    4.1376   -0.0797   -1.6533 C   0  0  0  0  0  0  0  0  0  0  0  0
    1.2740   -2.6064   -2.2116 C   0  0  0  0  0  0  0  0  0  0  0  0
    0.6617   -1.9965   -1.1290 C   0  0  0  0  0  0  0  0  0  0  0  0
    0.1074   -2.7530   -0.1443 O   0  0  0  0  0  0  0  0  0  0  0  0
    0.1928   -4.1720   -0.2904 C   0  0  1  0  0  0  0  0  0  0  0  0
    1.0053    1.8021    0.0021 H   0  0  0  0  0  0  0  0  0  0  0  0
   -0.5445    1.7859   -0.8732 H   0  0  0  0  0  0  0  0  0  0  0  0
   -0.5275    1.7763    0.9067 H   0  0  0  0  0  0  0  0  0  0  0  0
    1.1343    1.2366   -2.0060 H   0  0  0  0  0  0  0  0  0  0  0  0
    2.2283    0.1421   -3.9204 H   0  0  0  0  0  0  0  0  0  0  0  0
    1.0688   -3.4358   -5.7340 H   0  0  0  0  0  0  0  0  0  0  0  0
    0.8398   -1.6691   -5.5209 H   0  0  0  0  0  0  0  0  0  0  0  0
    3.0158   -3.1298   -7.1219 H   0  0  0  0  0  0  0  0  0  0  0  0
    2.0279   -1.7137   -7.6151 H   0  0  0  0  0  0  0  0  0  0  0  0
    4.5252   -1.3072   -6.6592 H   0  0  0  0  0  0  0  0  0  0  0  0
    3.1961   -0.2346   -6.1223 H   0  0  0  0  0  0  0  0  0  0  0  0
    5.6935    1.1985   -4.3594 H   0  0  0  0  0  0  0  0  0  0  0  0
    5.3167    3.2812   -3.1010 H   0  0  0  0  0  0  0  0  0  0  0  0
    3.4336    1.0584    0.0139 H   0  0  0  0  0  0  0  0  0  0  0  0
    3.8070   -1.0238   -1.2462 H   0  0  0  0  0  0  0  0  0  0  0  0
    1.3146   -3.6839   -2.2726 H   0  0  0  0  0  0  0  0  0  0  0  0
   -0.3098   -4.4735   -1.2094 H   0  0  0  0  0  0  0  0  0  0  0  0
    1.2403   -4.4703   -0.3345 H   0  0  0  0  0  0  0  0  0  0  0  0
   -0.2869   -4.6545    0.5611 H   0  0  0  0  0  0  0  0  0  0  0  0
  1  2  1  0
  1 30  1  6
  1 31  1  0
  1 32  1  0
  2  3  1  0
  3 27  2  0
  3  4  1  0
  4  5  2  0
  4 33  1  0
  5  6  1  0
  5 34  1  0
  6  7  1  0
  6 26  2  0
  7  8  1  1
  7 12  1  0
  7  9  1  0
  9 10  1  0
  9 35  1  6
  9 36  1  0
 10 11  1  0
 10 37  1  6
 10 38  1  0
 11 12  1  0
 11 39  1  6
 11 40  1  0
 13 12  1  6
 13 14  2  0
 13 15  2  0
 13 16  1  0
 16 25  2  0
 16 17  1  0
 17 18  2  0
 17 41  1  0
 18 19  1  0
 18 42  1  0
 19 20  1  0
 19 24  2  0
 20 21  1  6
 20 22  1  0
 20 23  1  0
 24 25  1  0
 24 43  1  0
 25 44  1  0
 26 27  1  0
 26 45  1  0
 27 28  1  0
 28 29  1  0
 29 46  1  6
 29 47  1  0
 29 48  1  0
M  END
$$$$
