ZINC000091645915
     RDKit          3D

 42 44  0  0  1  0  0  0  0  0999 V2000
   -0.0178    1.4648    0.0101 C   0  0  1  0  0  0  0  0  0  0  0  0
    0.0021   -0.0041    0.0020 N   0  0  0  0  0  0  0  0  0  0  0  0
   -1.3151   -0.5412   -0.2964 C   0  0  1  0  0  0  0  0  0  0  0  0
   -1.2447   -2.0435   -0.5866 C   0  0  1  0  0  0  0  0  0  0  0  0
   -2.0858   -2.3173   -1.2235 H   0  0  0  0  0  0  0  0  0  0  0  0
    0.0388   -2.4711   -1.2644 C   0  0  1  0  0  0  0  0  0  0  0  0
    1.2627   -2.2625   -0.3935 C   0  0  1  0  0  0  0  0  0  0  0  0
    0.9266   -2.0163    1.0655 C   0  0  2  0  0  0  0  0  0  0  0  0
    1.8063   -2.2503    1.6650 H   0  0  0  0  0  0  0  0  0  0  0  0
   -0.2384   -2.8672    1.5666 C   0  0  1  0  0  0  0  0  0  0  0  0
   -1.3692   -2.7603    0.6951 N   0  0  0  0  0  0  0  0  0  0  0  0
   -2.8291   -3.4134    1.1244 S   0  0  1  0  0  0  0  0  0  0  0  0
   -3.5384   -3.6408   -0.0857 O   0  0  0  0  0  0  0  0  0  0  0  0
   -2.5481   -4.4406    2.0653 O   0  0  0  0  0  0  0  0  0  0  0  0
   -3.7206   -2.1693    1.9974 C   0  0  0  0  0  0  0  0  0  0  0  0
   -3.5915   -2.0607    3.3695 C   0  0  0  0  0  0  0  0  0  0  0  0
   -4.2909   -1.0846    4.0543 C   0  0  0  0  0  0  0  0  0  0  0  0
   -5.1189   -0.2169    3.3672 C   0  0  0  0  0  0  0  0  0  0  0  0
   -5.8817    0.8469    4.1139 C   0  0  1  0  0  0  0  0  0  0  0  0
   -5.1096    2.0113    4.1849 F   0  0  0  0  0  0  0  0  0  0  0  0
   -7.0781    1.1209    3.4425 F   0  0  0  0  0  0  0  0  0  0  0  0
   -6.1656    0.3959    5.4074 F   0  0  0  0  0  0  0  0  0  0  0  0
   -5.2469   -0.3246    1.9950 C   0  0  0  0  0  0  0  0  0  0  0  0
   -4.5446   -1.2982    1.3096 C   0  0  0  0  0  0  0  0  0  0  0  0
    0.6213   -0.5274    1.2221 C   0  0  1  0  0  0  0  0  0  0  0  0
    1.0047    1.8421    0.0024 H   0  0  0  0  0  0  0  0  0  0  0  0
   -0.5450    1.8259   -0.8730 H   0  0  0  0  0  0  0  0  0  0  0  0
   -0.5280    1.8163    0.9069 H   0  0  0  0  0  0  0  0  0  0  0  0
   -1.9721   -0.3721    0.5567 H   0  0  0  0  0  0  0  0  0  0  0  0
   -1.7220   -0.0274   -1.1674 H   0  0  0  0  0  0  0  0  0  0  0  0
   -0.0343   -3.5281   -1.5204 H   0  0  0  0  0  0  0  0  0  0  0  0
    0.1592   -1.8968   -2.1830 H   0  0  0  0  0  0  0  0  0  0  0  0
    1.8957   -3.1472   -0.4622 H   0  0  0  0  0  0  0  0  0  0  0  0
    1.8204   -1.4064   -0.7733 H   0  0  0  0  0  0  0  0  0  0  0  0
    0.0701   -3.9120    1.6008 H   0  0  0  0  0  0  0  0  0  0  0  0
   -0.5128   -2.5428    2.5704 H   0  0  0  0  0  0  0  0  0  0  0  0
   -2.9446   -2.7387    3.9063 H   0  0  0  0  0  0  0  0  0  0  0  0
   -4.1906   -1.0003    5.1264 H   0  0  0  0  0  0  0  0  0  0  0  0
   -5.8936    0.3536    1.4580 H   0  0  0  0  0  0  0  0  0  0  0  0
   -4.6446   -1.3824    0.2376 H   0  0  0  0  0  0  0  0  0  0  0  0
    1.5434    0.0115    1.4399 H   0  0  0  0  0  0  0  0  0  0  0  0
   -0.0843   -0.3854    2.0406 H   0  0  0  0  0  0  0  0  0  0  0  0
  1  2  1  0
  1 26  1  6
  1 27  1  0
  1 28  1  0
  2 25  1  0
  2  3  1  0
  3  4  1  0
  3 29  1  1
  3 30  1  0
  4  5  1  6
  4 11  1  0
  4  6  1  0
  6  7  1  0
  6 31  1  6
  6 32  1  0
  7  8  1  0
  7 33  1  1
  7 34  1  0
  8  9  1  1
  8 10  1  0
  8 25  1  0
 10 11  1  0
 10 35  1  1
 10 36  1  0
 12 11  1  6
 12 13  2  0
 12 14  2  0
 12 15  1  0
 15 24  2  0
 15 16  1  0
 16 17  2  0
 16 37  1  0
 17 18  1  0
 17 38  1  0
 18 19  1  0
 18 23  2  0
 19 20  1  1
 19 21  1  0
 19 22  1  0
 23 24  1  0
 23 39  1  0
 24 40  1  0
 25 41  1  1
 25 42  1  0
M  END
$$$$
