ZINC000084579082
     RDKit          3D

 36 38  0  0  1  0  0  0  0  0999 V2000
    0.0021   -0.0041    0.0020 O   0  0  0  0  0  0  0  0  0  0  0  0
   -0.0145    1.2150    0.0087 C   0  0  0  0  0  0  0  0  0  0  0  0
    1.0330    1.8389    0.0021 O   0  0  0  0  0  0  0  0  0  0  0  0
   -1.3296    1.9507    0.0190 C   0  0  1  0  0  0  0  0  0  0  0  0
   -1.4125    2.5675    0.9138 H   0  0  0  0  0  0  0  0  0  0  0  0
   -1.4701    2.8161   -1.2441 C   0  0  1  0  0  0  0  0  0  0  0  0
   -2.6513    2.2950   -1.9372 N   0  0  0  0  0  0  0  0  0  0  0  0
   -3.2471    2.8800   -3.3673 S   0  0  1  0  0  0  0  0  0  0  0  0
   -4.6213    2.5202   -3.4065 O   0  0  0  0  0  0  0  0  0  0  0  0
   -2.7918    4.2219   -3.4728 O   0  0  0  0  0  0  0  0  0  0  0  0
   -2.4610    1.9844   -4.6652 C   0  0  0  0  0  0  0  0  0  0  0  0
   -1.2735    2.4451   -5.2022 C   0  0  0  0  0  0  0  0  0  0  0  0
   -0.6568    1.7424   -6.2204 C   0  0  0  0  0  0  0  0  0  0  0  0
   -1.2274    0.5788   -6.7014 C   0  0  0  0  0  0  0  0  0  0  0  0
   -0.5553   -0.1869   -7.8118 C   0  0  1  0  0  0  0  0  0  0  0  0
    0.3281   -1.1234   -7.2642 F   0  0  0  0  0  0  0  0  0  0  0  0
   -1.5235   -0.8493   -8.5740 F   0  0  0  0  0  0  0  0  0  0  0  0
    0.1536    0.7011   -8.6280 F   0  0  0  0  0  0  0  0  0  0  0  0
   -2.4142    0.1174   -6.1635 C   0  0  0  0  0  0  0  0  0  0  0  0
   -3.0289    0.8180   -5.1426 C   0  0  0  0  0  0  0  0  0  0  0  0
   -3.2006    1.2333   -1.2166 C   0  0  0  0  0  0  0  0  0  0  0  0
   -4.3203    0.4516   -1.5078 C   0  0  0  0  0  0  0  0  0  0  0  0
   -4.7012   -0.5624   -0.6548 C   0  0  0  0  0  0  0  0  0  0  0  0
   -3.9767   -0.8132    0.4957 C   0  0  0  0  0  0  0  0  0  0  0  0
   -2.8666   -0.0434    0.7911 C   0  0  0  0  0  0  0  0  0  0  0  0
   -2.4814    0.9737   -0.0570 C   0  0  0  0  0  0  0  0  0  0  0  0
   -1.6216    3.8606   -0.9718 H   0  0  0  0  0  0  0  0  0  0  0  0
   -0.5861    2.7129   -1.8734 H   0  0  0  0  0  0  0  0  0  0  0  0
   -0.8277    3.3542   -4.8264 H   0  0  0  0  0  0  0  0  0  0  0  0
    0.2707    2.1028   -6.6404 H   0  0  0  0  0  0  0  0  0  0  0  0
   -2.8598   -0.7919   -6.5390 H   0  0  0  0  0  0  0  0  0  0  0  0
   -3.9562    0.4574   -4.7223 H   0  0  0  0  0  0  0  0  0  0  0  0
   -4.8907    0.6423   -2.4049 H   0  0  0  0  0  0  0  0  0  0  0  0
   -5.5684   -1.1631   -0.8863 H   0  0  0  0  0  0  0  0  0  0  0  0
   -4.2772   -1.6080    1.1622 H   0  0  0  0  0  0  0  0  0  0  0  0
   -2.2995   -0.2380    1.6894 H   0  0  0  0  0  0  0  0  0  0  0  0
  1  2  2  0
  2  3  1  0
  2  4  1  0
  4  5  1  1
  4 26  1  0
  4  6  1  0
  6  7  1  0
  6 27  1  1
  6 28  1  0
  8  7  1  1
  7 21  1  0
  8  9  2  0
  8 10  2  0
  8 11  1  0
 11 20  2  0
 11 12  1  0
 12 13  2  0
 12 29  1  0
 13 14  1  0
 13 30  1  0
 14 15  1  0
 14 19  2  0
 15 16  1  1
 15 17  1  0
 15 18  1  0
 19 20  1  0
 19 31  1  0
 20 32  1  0
 21 26  2  0
 21 22  1  0
 22 23  2  0
 22 33  1  0
 23 24  1  0
 23 34  1  0
 24 25  2  0
 24 35  1  0
 25 26  1  0
 25 36  1  0
M  END
$$$$
