ZINC000245039133
     RDKit          3D

 37 39  0  0  0  0  0  0  0  0999 V2000
    0.0021   -0.0041    0.0020 O   0  0  0  0  0  0  0  0  0  0  0  0
   -0.0172    1.4168    0.0098 S   0  0  1  0  0  0  0  0  0  0  0  0
    1.1617    2.2101    0.0028 O   0  0  0  0  0  0  0  0  0  0  0  0
   -0.9567    1.9094   -1.3970 C   0  0  0  0  0  0  0  0  0  0  0  0
   -1.8848    1.0442   -1.9458 C   0  0  0  0  0  0  0  0  0  0  0  0
   -2.6219    1.4307   -3.0496 C   0  0  0  0  0  0  0  0  0  0  0  0
   -2.4313    2.6825   -3.6042 C   0  0  0  0  0  0  0  0  0  0  0  0
   -3.2345    3.1036   -4.8078 C   0  0  1  0  0  0  0  0  0  0  0  0
   -4.4138    3.7273   -4.3864 F   0  0  0  0  0  0  0  0  0  0  0  0
   -2.4843    3.9973   -5.5796 F   0  0  0  0  0  0  0  0  0  0  0  0
   -3.5510    1.9771   -5.5746 F   0  0  0  0  0  0  0  0  0  0  0  0
   -1.5042    3.5481   -3.0546 C   0  0  0  0  0  0  0  0  0  0  0  0
   -0.7699    3.1631   -1.9485 C   0  0  0  0  0  0  0  0  0  0  0  0
   -0.8748    1.8654    1.3536 N   0  0  0  0  0  0  0  0  0  0  0  0
   -0.9544    3.0588    2.2093 C   0  0  1  0  0  0  0  0  0  0  0  0
   -2.3987    2.6584    2.5407 C   0  0  1  0  0  0  0  0  0  0  0  0
   -3.3956    3.1709    1.5975 N   0  0  0  0  0  0  0  0  0  0  0  0
   -4.7062    3.3495    2.0049 C   0  0  0  0  0  0  0  0  0  0  0  0
   -5.0410    3.0570    3.2530 N   0  0  0  0  0  0  0  0  0  0  0  0
   -6.2846    3.2166    3.6746 C   0  0  0  0  0  0  0  0  0  0  0  0
   -7.2411    3.6957    2.7933 C   0  0  0  0  0  0  0  0  0  0  0  0
   -6.8566    3.9917    1.4949 C   0  0  0  0  0  0  0  0  0  0  0  0
   -5.5951    3.8140    1.1391 N   0  0  0  0  0  0  0  0  0  0  0  0
   -1.8966    1.2483    2.2125 C   0  0  1  0  0  0  0  0  0  0  0  0
   -2.0336    0.0662   -1.5125 H   0  0  0  0  0  0  0  0  0  0  0  0
   -3.3464    0.7545   -3.4788 H   0  0  0  0  0  0  0  0  0  0  0  0
   -1.3556    4.5263   -3.4877 H   0  0  0  0  0  0  0  0  0  0  0  0
   -0.0456    3.8394   -1.5191 H   0  0  0  0  0  0  0  0  0  0  0  0
   -0.2855    3.0218    3.0691 H   0  0  0  0  0  0  0  0  0  0  0  0
   -0.8796    3.9952    1.6564 H   0  0  0  0  0  0  0  0  0  0  0  0
   -2.6758    2.8082    3.5842 H   0  0  0  0  0  0  0  0  0  0  0  0
   -3.1372    3.3852    0.6874 H   0  0  0  0  0  0  0  0  0  0  0  0
   -6.5515    2.9761    4.6931 H   0  0  0  0  0  0  0  0  0  0  0  0
   -8.2638    3.8350    3.1112 H   0  0  0  0  0  0  0  0  0  0  0  0
   -7.5776    4.3664    0.7834 H   0  0  0  0  0  0  0  0  0  0  0  0
   -2.6213    0.6461    1.6644 H   0  0  0  0  0  0  0  0  0  0  0  0
   -1.4779    0.7255    3.0724 H   0  0  0  0  0  0  0  0  0  0  0  0
  1  2  2  0
  2  3  2  0
  2  4  1  0
  2 14  1  1
  4 13  2  0
  4  5  1  0
  5  6  2  0
  5 25  1  0
  6  7  1  0
  6 26  1  0
  7  8  1  0
  7 12  2  0
  8  9  1  1
  8 10  1  0
  8 11  1  0
 12 13  1  0
 12 27  1  0
 13 28  1  0
 14 24  1  0
 14 15  1  0
 15 16  1  0
 15 29  1  1
 15 30  1  0
 16 17  1  0
 16 24  1  0
 16 31  1  1
 17 18  1  0
 17 32  1  0
 18 23  2  0
 18 19  1  0
 19 20  2  0
 20 21  1  0
 20 33  1  0
 21 22  2  0
 21 34  1  0
 22 23  1  0
 22 35  1  0
 24 36  1  6
 24 37  1  0
M  END
$$$$
