ZINC000008861774
     RDKit          3D

 43 45  0  0  1  0  0  0  0  0999 V2000
   -0.5762    1.4730   -1.5221 C   0  0  1  0  0  0  0  0  0  0  0  0
   -0.5493    0.0239   -1.6106 O   0  0  0  0  0  0  0  0  0  0  0  0
    0.5179   -0.5989   -1.0865 C   0  0  0  0  0  0  0  0  0  0  0  0
    1.4005    0.0453   -0.5708 O   0  0  0  0  0  0  0  0  0  0  0  0
    0.6154   -2.1018   -1.1412 C   0  0  2  0  0  0  0  0  0  0  0  0
   -0.3816   -2.5383   -1.0815 H   0  0  0  0  0  0  0  0  0  0  0  0
    1.4711   -2.6069    0.0195 C   0  0  1  0  0  0  0  0  0  0  0  0
    1.8460   -4.0517   -0.1801 C   0  0  0  0  0  0  0  0  0  0  0  0
    2.2399   -4.7756    0.9385 C   0  0  0  0  0  0  0  0  0  0  0  0
    2.6056   -6.1008    0.8239 C   0  0  0  0  0  0  0  0  0  0  0  0
    2.5822   -6.7159   -0.4137 C   0  0  0  0  0  0  0  0  0  0  0  0
    2.1881   -6.0003   -1.5260 C   0  0  0  0  0  0  0  0  0  0  0  0
    1.8143   -4.6686   -1.4109 C   0  0  0  0  0  0  0  0  0  0  0  0
    1.3688   -3.9524   -2.6611 C   0  0  1  0  0  0  0  0  0  0  0  0
    1.2650   -2.5134   -2.3966 N   0  0  0  0  0  0  0  0  0  0  0  0
    1.8572   -1.3964   -3.4661 S   0  0  1  0  0  0  0  0  0  0  0  0
    2.2637   -0.2761   -2.6922 O   0  0  0  0  0  0  0  0  0  0  0  0
    2.7337   -2.0992   -4.3362 O   0  0  0  0  0  0  0  0  0  0  0  0
    0.5041   -0.8531   -4.4554 C   0  0  0  0  0  0  0  0  0  0  0  0
    0.0828    0.4613   -4.3883 C   0  0  0  0  0  0  0  0  0  0  0  0
   -0.9789    0.8877   -5.1645 C   0  0  0  0  0  0  0  0  0  0  0  0
   -1.4379    2.3213   -5.0908 C   0  0  1  0  0  0  0  0  0  0  0  0
   -0.7437    3.0824   -6.0373 F   0  0  0  0  0  0  0  0  0  0  0  0
   -2.8100    2.3858   -5.3559 F   0  0  0  0  0  0  0  0  0  0  0  0
   -1.1860    2.8263   -3.8106 F   0  0  0  0  0  0  0  0  0  0  0  0
   -1.6193   -0.0001   -6.0084 C   0  0  0  0  0  0  0  0  0  0  0  0
   -1.1987   -1.3152   -6.0764 C   0  0  0  0  0  0  0  0  0  0  0  0
   -0.1332   -1.7411   -5.3040 C   0  0  0  0  0  0  0  0  0  0  0  0
    0.3956   -3.3925   -5.3889 Cl  0  0  0  0  0  0  0  0  0  0  0  0
   -0.5467    1.7736   -0.4748 H   0  0  0  0  0  0  0  0  0  0  0  0
    0.2883    1.8849   -2.0428 H   0  0  0  0  0  0  0  0  0  0  0  0
   -1.4902    1.8482   -1.9822 H   0  0  0  0  0  0  0  0  0  0  0  0
    2.3786   -2.0066    0.0836 H   0  0  0  0  0  0  0  0  0  0  0  0
    0.9098   -2.5072    0.9486 H   0  0  0  0  0  0  0  0  0  0  0  0
    2.2604   -4.2964    1.9062 H   0  0  0  0  0  0  0  0  0  0  0  0
    2.9097   -6.6562    1.6988 H   0  0  0  0  0  0  0  0  0  0  0  0
    2.8715   -7.7520   -0.5099 H   0  0  0  0  0  0  0  0  0  0  0  0
    2.1707   -6.4801   -2.4934 H   0  0  0  0  0  0  0  0  0  0  0  0
    2.0950   -4.1239   -3.4557 H   0  0  0  0  0  0  0  0  0  0  0  0
    0.3961   -4.3345   -2.9709 H   0  0  0  0  0  0  0  0  0  0  0  0
    0.5828    1.1555   -3.7291 H   0  0  0  0  0  0  0  0  0  0  0  0
   -2.4486    0.3336   -6.6144 H   0  0  0  0  0  0  0  0  0  0  0  0
   -1.6991   -2.0088   -6.7359 H   0  0  0  0  0  0  0  0  0  0  0  0
  1  2  1  0
  1 30  1  1
  1 31  1  0
  1 32  1  0
  2  3  1  0
  3  4  2  0
  3  5  1  0
  5  6  1  1
  5 15  1  0
  5  7  1  0
  7  8  1  0
  7 33  1  1
  7 34  1  0
  8 13  2  0
  8  9  1  0
  9 10  2  0
  9 35  1  0
 10 11  1  0
 10 36  1  0
 11 12  2  0
 11 37  1  0
 12 13  1  0
 12 38  1  0
 13 14  1  0
 14 15  1  0
 14 39  1  6
 14 40  1  0
 16 15  1  1
 16 17  2  0
 16 18  2  0
 16 19  1  0
 19 28  2  0
 19 20  1  0
 20 21  2  0
 20 41  1  0
 21 22  1  0
 21 26  1  0
 22 23  1  6
 22 24  1  0
 22 25  1  0
 26 27  2  0
 26 42  1  0
 27 28  1  0
 27 43  1  0
 28 29  1  0
M  END
$$$$
