ZINC000007881274
     RDKit          3D

 51 52  0  0  1  0  0  0  0  0999 V2000
   -0.0187    1.5258    0.0104 C   0  0  1  0  0  0  0  0  0  0  0  0
    0.0021   -0.0041    0.0020 C   0  0  1  0  0  0  0  0  0  0  0  0
   -1.3386   -0.4987    0.0122 O   0  0  0  0  0  0  0  0  0  0  0  0
   -1.4984   -1.8485    0.0064 C   0  0  0  0  0  0  0  0  0  0  0  0
   -0.3882   -2.6793   -0.0028 C   0  0  0  0  0  0  0  0  0  0  0  0
   -0.5531   -4.0514   -0.0082 C   0  0  0  0  0  0  0  0  0  0  0  0
   -1.8234   -4.5965   -0.0047 C   0  0  0  0  0  0  0  0  0  0  0  0
   -2.0295   -6.3464   -0.0115 S   0  0  1  0  0  0  0  0  0  0  0  0
   -3.3201   -6.5963   -0.5511 O   0  0  0  0  0  0  0  0  0  0  0  0
   -0.8378   -6.8886   -0.5639 O   0  0  0  0  0  0  0  0  0  0  0  0
   -2.0796   -6.8402    1.5683 N   0  0  0  0  0  0  0  0  0  0  0  0
   -3.3617   -6.9103    2.2736 C   0  0  1  0  0  0  0  0  0  0  0  0
   -3.9114   -8.3358    2.1920 C   0  0  1  0  0  0  0  0  0  0  0  0
   -0.8417   -7.2070    2.2607 C   0  0  1  0  0  0  0  0  0  0  0  0
   -0.3219   -6.0167    3.0249 C   0  0  0  0  0  0  0  0  0  0  0  0
   -0.9260   -4.9655    2.9943 O   0  0  0  0  0  0  0  0  0  0  0  0
    0.8143   -6.1204    3.7424 N   0  0  0  0  0  0  0  0  0  0  0  0
    1.3196   -4.9632    4.4854 C   0  0  1  0  0  0  0  0  0  0  0  0
    2.6124   -5.3463    5.2084 C   0  0  1  0  0  0  0  0  0  0  0  0
    3.3630   -5.6769    4.4905 H   0  0  0  0  0  0  0  0  0  0  0  0
    3.1456   -4.1453    6.0294 C   0  0  1  0  0  0  0  0  0  0  0  0
    3.9810   -4.8777    7.1146 C   0  0  1  0  0  0  0  0  0  0  0  0
    3.1669   -6.1703    7.3378 C   0  0  1  0  0  0  0  0  0  0  0  0
    2.3566   -6.3791    6.1735 O   0  0  0  0  0  0  0  0  0  0  0  0
   -2.9328   -3.7709    0.0045 C   0  0  0  0  0  0  0  0  0  0  0  0
   -2.7735   -2.3980    0.0157 C   0  0  0  0  0  0  0  0  0  0  0  0
   -4.1662   -1.3617    0.0273 Cl  0  0  0  0  0  0  0  0  0  0  0  0
    1.0039    1.9031    0.0027 H   0  0  0  0  0  0  0  0  0  0  0  0
   -0.5459    1.8868   -0.8726 H   0  0  0  0  0  0  0  0  0  0  0  0
   -0.5289    1.8773    0.9072 H   0  0  0  0  0  0  0  0  0  0  0  0
    0.5123   -0.3556   -0.8948 H   0  0  0  0  0  0  0  0  0  0  0  0
    0.5293   -0.3651    0.8851 H   0  0  0  0  0  0  0  0  0  0  0  0
    0.6047   -2.2544   -0.0062 H   0  0  0  0  0  0  0  0  0  0  0  0
    0.3115   -4.6985   -0.0154 H   0  0  0  0  0  0  0  0  0  0  0  0
   -3.2170   -6.6359    3.3186 H   0  0  0  0  0  0  0  0  0  0  0  0
   -4.0687   -6.2212    1.8116 H   0  0  0  0  0  0  0  0  0  0  0  0
   -4.8654   -8.3879    2.7168 H   0  0  0  0  0  0  0  0  0  0  0  0
   -4.0561   -8.6102    1.1471 H   0  0  0  0  0  0  0  0  0  0  0  0
   -3.2044   -9.0248    2.6541 H   0  0  0  0  0  0  0  0  0  0  0  0
   -1.0414   -8.0246    2.9534 H   0  0  0  0  0  0  0  0  0  0  0  0
   -0.0969   -7.5233    1.5304 H   0  0  0  0  0  0  0  0  0  0  0  0
    1.2974   -6.9611    3.7670 H   0  0  0  0  0  0  0  0  0  0  0  0
    1.5193   -4.1457    3.7927 H   0  0  0  0  0  0  0  0  0  0  0  0
    0.5748   -4.6469    5.2157 H   0  0  0  0  0  0  0  0  0  0  0  0
    3.7758   -3.5000    5.4175 H   0  0  0  0  0  0  0  0  0  0  0  0
    2.3273   -3.5815    6.4776 H   0  0  0  0  0  0  0  0  0  0  0  0
    4.9804   -5.1075    6.7453 H   0  0  0  0  0  0  0  0  0  0  0  0
    4.0306   -4.2876    8.0298 H   0  0  0  0  0  0  0  0  0  0  0  0
    3.8432   -7.0146    7.4721 H   0  0  0  0  0  0  0  0  0  0  0  0
    2.5318   -6.0602    8.2167 H   0  0  0  0  0  0  0  0  0  0  0  0
   -3.9242   -4.1992    0.0072 H   0  0  0  0  0  0  0  0  0  0  0  0
  1  2  1  0
  1 28  1  6
  1 29  1  0
  1 30  1  0
  2  3  1  0
  2 31  1  6
  2 32  1  0
  3  4  1  0
  4 26  2  0
  4  5  1  0
  5  6  2  0
  5 33  1  0
  6  7  1  0
  6 34  1  0
  7  8  1  0
  7 25  2  0
  8  9  2  0
  8 10  2  0
  8 11  1  1
 11 12  1  0
 11 14  1  0
 12 13  1  0
 12 35  1  1
 12 36  1  0
 13 37  1  1
 13 38  1  0
 13 39  1  0
 14 15  1  0
 14 40  1  1
 14 41  1  0
 15 16  2  0
 15 17  1  0
 17 18  1  0
 17 42  1  0
 18 19  1  0
 18 43  1  6
 18 44  1  0
 19 20  1  6
 19 24  1  0
 19 21  1  0
 21 22  1  0
 21 45  1  6
 21 46  1  0
 22 23  1  0
 22 47  1  6
 22 48  1  0
 23 24  1  0
 23 49  1  1
 23 50  1  0
 25 26  1  0
 25 51  1  0
 26 27  1  0
M  END
$$$$
