ZINC000013496948
     RDKit          3D

 60 62  0  0  0  0  0  0  0  0999 V2000
   -0.0413    1.4263    0.0165 C   0  0  1  0  0  0  0  0  0  0  0  0
   -0.0131   -0.0024    0.0059 O   0  0  0  0  0  0  0  0  0  0  0  0
    0.6365   -0.5624   -1.1371 C   0  0  1  0  0  0  0  0  0  0  0  0
    0.6075   -2.0893   -1.0431 C   0  0  1  0  0  0  0  0  0  0  0  0
   -0.7788   -2.5569   -1.1174 N   0  0  0  0  0  0  0  0  0  0  0  0
   -1.4127   -2.7653   -2.4217 C   0  0  1  0  0  0  0  0  0  0  0  0
   -1.0730   -4.1424   -2.9309 C   0  0  0  0  0  0  0  0  0  0  0  0
   -0.3706   -4.8774   -2.2695 O   0  0  0  0  0  0  0  0  0  0  0  0
   -1.5497   -4.5573   -4.1213 N   0  0  0  0  0  0  0  0  0  0  0  0
   -1.1568   -5.7964   -4.6389 C   0  0  0  0  0  0  0  0  0  0  0  0
   -0.9841   -5.9556   -6.0077 C   0  0  0  0  0  0  0  0  0  0  0  0
   -0.5962   -7.1800   -6.5154 C   0  0  0  0  0  0  0  0  0  0  0  0
   -0.3802   -8.2469   -5.6626 C   0  0  0  0  0  0  0  0  0  0  0  0
   -0.5517   -8.0917   -4.2992 C   0  0  0  0  0  0  0  0  0  0  0  0
   -0.9331   -6.8681   -3.7846 C   0  0  0  0  0  0  0  0  0  0  0  0
   -1.6295   -2.8498    0.2729 S   0  0  1  0  0  0  0  0  0  0  0  0
   -2.6565   -3.7696   -0.0714 O   0  0  0  0  0  0  0  0  0  0  0  0
   -0.6665   -3.1036    1.2865 O   0  0  0  0  0  0  0  0  0  0  0  0
   -2.4356   -1.3474    0.7174 C   0  0  0  0  0  0  0  0  0  0  0  0
   -1.7965   -0.4365    1.5376 C   0  0  0  0  0  0  0  0  0  0  0  0
   -2.4289    0.7421    1.8864 C   0  0  0  0  0  0  0  0  0  0  0  0
   -3.7003    1.0102    1.4146 C   0  0  0  0  0  0  0  0  0  0  0  0
   -4.5067    2.5123    1.8596 S   0  0  1  0  0  0  0  0  0  0  0  0
   -5.9010    2.2748    1.7234 O   0  0  0  0  0  0  0  0  0  0  0  0
   -3.9069    2.9455    3.0729 O   0  0  0  0  0  0  0  0  0  0  0  0
   -4.1101    3.6397    0.7134 N   0  0  0  0  0  0  0  0  0  0  0  0
   -2.9188    4.4897    0.8672 C   0  0  1  0  0  0  0  0  0  0  0  0
   -2.1013    4.4153   -0.4274 C   0  0  1  0  0  0  0  0  0  0  0  0
   -2.9516    4.7090   -1.5386 O   0  0  0  0  0  0  0  0  0  0  0  0
   -4.0225    3.7790   -1.7179 C   0  0  1  0  0  0  0  0  0  0  0  0
   -4.9352    3.8170   -0.4921 C   0  0  1  0  0  0  0  0  0  0  0  0
   -4.3389    0.0999    0.5933 C   0  0  0  0  0  0  0  0  0  0  0  0
   -3.7050   -1.0770    0.2414 C   0  0  0  0  0  0  0  0  0  0  0  0
    0.9789    1.8099    0.0063 H   0  0  0  0  0  0  0  0  0  0  0  0
   -0.5735    1.7858   -0.8642 H   0  0  0  0  0  0  0  0  0  0  0  0
   -0.5508    1.7729    0.9156 H   0  0  0  0  0  0  0  0  0  0  0  0
    0.1184   -0.2442   -2.0418 H   0  0  0  0  0  0  0  0  0  0  0  0
    1.6708   -0.2201   -1.1713 H   0  0  0  0  0  0  0  0  0  0  0  0
    1.1793   -2.5150   -1.8678 H   0  0  0  0  0  0  0  0  0  0  0  0
    1.0467   -2.4034   -0.0963 H   0  0  0  0  0  0  0  0  0  0  0  0
   -2.4939   -2.6723   -2.3192 H   0  0  0  0  0  0  0  0  0  0  0  0
   -1.0488   -2.0174   -3.1262 H   0  0  0  0  0  0  0  0  0  0  0  0
   -2.1653   -3.9968   -4.6192 H   0  0  0  0  0  0  0  0  0  0  0  0
   -1.1533   -5.1230   -6.6743 H   0  0  0  0  0  0  0  0  0  0  0  0
   -0.4617   -7.3045   -7.5798 H   0  0  0  0  0  0  0  0  0  0  0  0
   -0.0773   -9.2034   -6.0622 H   0  0  0  0  0  0  0  0  0  0  0  0
   -0.3830   -8.9271   -3.6358 H   0  0  0  0  0  0  0  0  0  0  0  0
   -1.0669   -6.7476   -2.7197 H   0  0  0  0  0  0  0  0  0  0  0  0
   -0.8032   -0.6459    1.9062 H   0  0  0  0  0  0  0  0  0  0  0  0
   -1.9298    1.4534    2.5278 H   0  0  0  0  0  0  0  0  0  0  0  0
   -3.2241    5.5201    1.0499 H   0  0  0  0  0  0  0  0  0  0  0  0
   -2.3172    4.1310    1.7024 H   0  0  0  0  0  0  0  0  0  0  0  0
   -1.2898    5.1420   -0.3879 H   0  0  0  0  0  0  0  0  0  0  0  0
   -1.6882    3.4129   -0.5401 H   0  0  0  0  0  0  0  0  0  0  0  0
   -4.5932    4.0479   -2.6068 H   0  0  0  0  0  0  0  0  0  0  0  0
   -3.6164    2.7743   -1.8352 H   0  0  0  0  0  0  0  0  0  0  0  0
   -5.6704    3.0148   -0.5568 H   0  0  0  0  0  0  0  0  0  0  0  0
   -5.4446    4.7794   -0.4434 H   0  0  0  0  0  0  0  0  0  0  0  0
   -5.3321    0.3095    0.2244 H   0  0  0  0  0  0  0  0  0  0  0  0
   -4.2039   -1.7882   -0.4003 H   0  0  0  0  0  0  0  0  0  0  0  0
  1  2  1  0
  1 34  1  6
  1 35  1  0
  1 36  1  0
  2  3  1  0
  3  4  1  0
  3 37  1  6
  3 38  1  0
  4  5  1  0
  4 39  1  6
  4 40  1  0
  5  6  1  0
 16  5  1  6
  6  7  1  0
  6 41  1  1
  6 42  1  0
  7  8  2  0
  7  9  1  0
  9 10  1  0
  9 43  1  0
 10 15  2  0
 10 11  1  0
 11 12  2  0
 11 44  1  0
 12 13  1  0
 12 45  1  0
 13 14  2  0
 13 46  1  0
 14 15  1  0
 14 47  1  0
 15 48  1  0
 16 17  2  0
 16 18  2  0
 16 19  1  0
 19 33  2  0
 19 20  1  0
 20 21  2  0
 20 49  1  0
 21 22  1  0
 21 50  1  0
 22 23  1  0
 22 32  2  0
 23 24  2  0
 23 25  2  0
 23 26  1  6
 26 31  1  0
 26 27  1  0
 27 28  1  0
 27 51  1  1
 27 52  1  0
 28 29  1  0
 28 53  1  1
 28 54  1  0
 29 30  1  0
 30 31  1  0
 30 55  1  6
 30 56  1  0
 31 57  1  6
 31 58  1  0
 32 33  1  0
 32 59  1  0
 33 60  1  0
M  END
$$$$
