ZINC000012917010
     RDKit          3D

 63 66  0  0  1  0  0  0  0  0999 V2000
   -0.2487   -0.3774   -0.1406 O   0  0  0  0  0  0  0  0  0  0  0  0
   -0.3023    1.0367   -0.2698 S   0  0  1  0  0  0  0  0  0  0  0  0
    0.8545    1.8475   -0.4229 O   0  0  0  0  0  0  0  0  0  0  0  0
   -1.3315    1.3705   -1.6605 C   0  0  0  0  0  0  0  0  0  0  0  0
   -2.2675    0.4382   -2.0674 C   0  0  0  0  0  0  0  0  0  0  0  0
   -3.0749    0.7001   -3.1584 C   0  0  0  0  0  0  0  0  0  0  0  0
   -2.9467    1.8946   -3.8423 C   0  0  0  0  0  0  0  0  0  0  0  0
   -3.8265    2.1799   -5.0320 C   0  0  1  0  0  0  0  0  0  0  0  0
   -4.9951    2.8197   -4.6050 F   0  0  0  0  0  0  0  0  0  0  0  0
   -3.1432    3.0073   -5.9296 F   0  0  0  0  0  0  0  0  0  0  0  0
   -4.1582    0.9776   -5.6658 F   0  0  0  0  0  0  0  0  0  0  0  0
   -2.0116    2.8275   -3.4346 C   0  0  0  0  0  0  0  0  0  0  0  0
   -1.2068    2.5672   -2.3412 C   0  0  0  0  0  0  0  0  0  0  0  0
   -1.0935    1.5992    1.0718 N   0  0  0  0  0  0  0  0  0  0  0  0
   -0.9016    2.9811    1.5373 C   0  0  1  0  0  0  0  0  0  0  0  0
   -2.2785    3.6261    1.7282 C   0  0  1  0  0  0  0  0  0  0  0  0
   -3.0935    2.7808    2.6109 N   0  0  0  0  0  0  0  0  0  0  0  0
   -4.3566    3.4459    2.9576 C   0  0  1  0  0  0  0  0  0  0  0  0
   -5.0610    2.6578    4.0638 C   0  0  1  0  0  0  0  0  0  0  0  0
   -5.1875    1.6223    3.7481 H   0  0  0  0  0  0  0  0  0  0  0  0
   -4.2724    2.6998    5.2547 O   0  0  0  0  0  0  0  0  0  0  0  0
   -6.4323    3.2785    4.3381 C   0  0  1  0  0  0  0  0  0  0  0  0
   -7.1374    2.4756    5.2869 O   0  0  0  0  0  0  0  0  0  0  0  0
   -8.4003    3.0157    5.6810 C   0  0  1  0  0  0  0  0  0  0  0  0
   -8.3448    4.1043    5.6699 H   0  0  0  0  0  0  0  0  0  0  0  0
   -9.4738    2.5562    4.6965 C   0  0  1  0  0  0  0  0  0  0  0  0
  -10.8446    2.9608    5.2513 C   0  0  1  0  0  0  0  0  0  0  0  0
  -11.1420    2.0989    6.4766 C   0  0  1  0  0  0  0  0  0  0  0  0
   -9.9875    2.1369    7.4434 C   0  0  0  0  0  0  0  0  0  0  0  0
  -10.2258    1.7353    8.7512 C   0  0  0  0  0  0  0  0  0  0  0  0
   -9.2083    1.7419    9.6831 C   0  0  0  0  0  0  0  0  0  0  0  0
   -7.9410    2.1507    9.3126 C   0  0  0  0  0  0  0  0  0  0  0  0
   -7.7028    2.5524    8.0143 C   0  0  0  0  0  0  0  0  0  0  0  0
   -8.7268    2.5492    7.0755 C   0  0  0  0  0  0  0  0  0  0  0  0
   -3.3400    1.4637    2.0089 C   0  0  1  0  0  0  0  0  0  0  0  0
   -2.0113    0.7320    1.8260 C   0  0  1  0  0  0  0  0  0  0  0  0
   -2.3677   -0.4950   -1.5330 H   0  0  0  0  0  0  0  0  0  0  0  0
   -3.8057   -0.0286   -3.4767 H   0  0  0  0  0  0  0  0  0  0  0  0
   -1.9116    3.7608   -3.9687 H   0  0  0  0  0  0  0  0  0  0  0  0
   -0.4762    3.2960   -2.0227 H   0  0  0  0  0  0  0  0  0  0  0  0
   -0.3647    2.9768    2.4858 H   0  0  0  0  0  0  0  0  0  0  0  0
   -0.3342    3.5422    0.7947 H   0  0  0  0  0  0  0  0  0  0  0  0
   -2.1592    4.6121    2.1772 H   0  0  0  0  0  0  0  0  0  0  0  0
   -2.7717    3.7237    0.7610 H   0  0  0  0  0  0  0  0  0  0  0  0
   -4.1505    4.4576    3.3071 H   0  0  0  0  0  0  0  0  0  0  0  0
   -4.9980    3.4891    2.0774 H   0  0  0  0  0  0  0  0  0  0  0  0
   -4.1189    3.5923    5.5937 H   0  0  0  0  0  0  0  0  0  0  0  0
   -6.3025    4.2840    4.7383 H   0  0  0  0  0  0  0  0  0  0  0  0
   -7.0012    3.3275    3.4097 H   0  0  0  0  0  0  0  0  0  0  0  0
   -9.3137    3.0336    3.7297 H   0  0  0  0  0  0  0  0  0  0  0  0
   -9.4287    1.4731    4.5834 H   0  0  0  0  0  0  0  0  0  0  0  0
  -10.8291    4.0125    5.5373 H   0  0  0  0  0  0  0  0  0  0  0  0
  -11.6104    2.7974    4.4930 H   0  0  0  0  0  0  0  0  0  0  0  0
  -12.0377    2.4743    6.9714 H   0  0  0  0  0  0  0  0  0  0  0  0
  -11.3117    1.0699    6.1597 H   0  0  0  0  0  0  0  0  0  0  0  0
  -11.2157    1.4155    9.0413 H   0  0  0  0  0  0  0  0  0  0  0  0
   -9.4014    1.4284   10.6984 H   0  0  0  0  0  0  0  0  0  0  0  0
   -7.1400    2.1560   10.0370 H   0  0  0  0  0  0  0  0  0  0  0  0
   -6.7123    2.8717    7.7257 H   0  0  0  0  0  0  0  0  0  0  0  0
   -3.9905    0.8815    2.6615 H   0  0  0  0  0  0  0  0  0  0  0  0
   -3.8184    1.5914    1.0378 H   0  0  0  0  0  0  0  0  0  0  0  0
   -2.1763   -0.1948    1.2766 H   0  0  0  0  0  0  0  0  0  0  0  0
   -1.5779    0.5106    2.8013 H   0  0  0  0  0  0  0  0  0  0  0  0
  1  2  2  0
  2  3  2  0
  2  4  1  0
  2 14  1  1
  4 13  2  0
  4  5  1  0
  5  6  2  0
  5 37  1  0
  6  7  1  0
  6 38  1  0
  7  8  1  0
  7 12  2  0
  8  9  1  1
  8 10  1  0
  8 11  1  0
 12 13  1  0
 12 39  1  0
 13 40  1  0
 14 36  1  0
 14 15  1  0
 15 16  1  0
 15 41  1  1
 15 42  1  0
 16 17  1  0
 16 43  1  1
 16 44  1  0
 17 18  1  0
 17 35  1  0
 18 19  1  0
 18 45  1  1
 18 46  1  0
 19 20  1  6
 19 21  1  0
 19 22  1  0
 21 47  1  0
 22 23  1  0
 22 48  1  1
 22 49  1  0
 23 24  1  0
 24 25  1  1
 24 34  1  0
 24 26  1  0
 26 27  1  0
 26 50  1  6
 26 51  1  0
 27 28  1  0
 27 52  1  1
 27 53  1  0
 28 29  1  0
 28 54  1  1
 28 55  1  0
 29 34  2  0
 29 30  1  0
 30 31  2  0
 30 56  1  0
 31 32  1  0
 31 57  1  0
 32 33  2  0
 32 58  1  0
 33 34  1  0
 33 59  1  0
 35 36  1  0
 35 60  1  1
 35 61  1  0
 36 62  1  6
 36 63  1  0
M  END
$$$$
