ZINC000408937226
     RDKit          3D

 55 57  0  0  0  0  0  0  0  0999 V2000
   -0.0173    1.4248    0.0099 C   0  0  1  0  0  0  0  0  0  0  0  0
    0.0021   -0.0041    0.0020 O   0  0  0  0  0  0  0  0  0  0  0  0
   -1.2011   -0.6379    0.0101 C   0  0  0  0  0  0  0  0  0  0  0  0
   -2.3739    0.0992    0.0195 C   0  0  0  0  0  0  0  0  0  0  0  0
   -3.5965   -0.5469    0.0272 C   0  0  0  0  0  0  0  0  0  0  0  0
   -3.6519   -1.9279    0.0261 C   0  0  0  0  0  0  0  0  0  0  0  0
   -5.2128   -2.7451    0.0365 S   0  0  1  0  0  0  0  0  0  0  0  0
   -4.9848   -4.0390    0.5779 O   0  0  0  0  0  0  0  0  0  0  0  0
   -6.1440   -1.8246    0.5888 O   0  0  0  0  0  0  0  0  0  0  0  0
   -5.6586   -2.9707   -1.5423 N   0  0  0  0  0  0  0  0  0  0  0  0
   -5.2674   -4.1945   -2.2462 C   0  0  1  0  0  0  0  0  0  0  0  0
   -6.4026   -5.2168   -2.1613 C   0  0  1  0  0  0  0  0  0  0  0  0
   -6.0002   -6.4756   -2.8854 C   0  0  0  0  0  0  0  0  0  0  0  0
   -6.2771   -6.6168   -4.2323 C   0  0  0  0  0  0  0  0  0  0  0  0
   -5.9079   -7.7716   -4.8965 C   0  0  0  0  0  0  0  0  0  0  0  0
   -5.2614   -8.7850   -4.2138 C   0  0  0  0  0  0  0  0  0  0  0  0
   -4.9837   -8.6434   -2.8671 C   0  0  0  0  0  0  0  0  0  0  0  0
   -5.3491   -7.4869   -2.2039 C   0  0  0  0  0  0  0  0  0  0  0  0
   -6.4442   -1.9465   -2.2351 C   0  0  1  0  0  0  0  0  0  0  0  0
   -5.5191   -1.0372   -3.0022 C   0  0  0  0  0  0  0  0  0  0  0  0
   -4.3214   -1.2261   -2.9730 O   0  0  0  0  0  0  0  0  0  0  0  0
   -6.0226   -0.0141   -3.7206 N   0  0  0  0  0  0  0  0  0  0  0  0
   -5.1232    0.8698   -4.4663 C   0  0  1  0  0  0  0  0  0  0  0  0
   -5.5316    1.2556   -5.8895 C   0  0  1  0  0  0  0  0  0  0  0  0
   -5.6132    2.2884   -4.7636 C   0  0  1  0  0  0  0  0  0  0  0  0
   -2.4848   -2.6697    0.0163 C   0  0  0  0  0  0  0  0  0  0  0  0
   -1.2569   -2.0287    0.0032 C   0  0  0  0  0  0  0  0  0  0  0  0
   -0.1082   -2.7567   -0.0065 O   0  0  0  0  0  0  0  0  0  0  0  0
   -0.2418   -4.1795   -0.0024 C   0  0  1  0  0  0  0  0  0  0  0  0
    1.0053    1.8021    0.0021 H   0  0  0  0  0  0  0  0  0  0  0  0
   -0.5445    1.7859   -0.8732 H   0  0  0  0  0  0  0  0  0  0  0  0
   -0.5275    1.7763    0.9067 H   0  0  0  0  0  0  0  0  0  0  0  0
   -2.3334    1.1784    0.0211 H   0  0  0  0  0  0  0  0  0  0  0  0
   -4.5102    0.0290    0.0345 H   0  0  0  0  0  0  0  0  0  0  0  0
   -5.0643   -3.9631   -3.2918 H   0  0  0  0  0  0  0  0  0  0  0  0
   -4.3707   -4.6081   -1.7848 H   0  0  0  0  0  0  0  0  0  0  0  0
   -6.6057   -5.4482   -1.1157 H   0  0  0  0  0  0  0  0  0  0  0  0
   -7.2993   -4.8031   -2.6227 H   0  0  0  0  0  0  0  0  0  0  0  0
   -6.7821   -5.8251   -4.7656 H   0  0  0  0  0  0  0  0  0  0  0  0
   -6.1249   -7.8822   -5.9487 H   0  0  0  0  0  0  0  0  0  0  0  0
   -4.9737   -9.6874   -4.7326 H   0  0  0  0  0  0  0  0  0  0  0  0
   -4.4789   -9.4353   -2.3337 H   0  0  0  0  0  0  0  0  0  0  0  0
   -5.1321   -7.3763   -1.1517 H   0  0  0  0  0  0  0  0  0  0  0  0
   -7.1377   -2.4260   -2.9260 H   0  0  0  0  0  0  0  0  0  0  0  0
   -7.0045   -1.3625   -1.5049 H   0  0  0  0  0  0  0  0  0  0  0  0
   -6.9805    0.1370   -3.7440 H   0  0  0  0  0  0  0  0  0  0  0  0
   -4.0601    0.7361   -4.2662 H   0  0  0  0  0  0  0  0  0  0  0  0
   -4.7371    1.3757   -6.6260 H   0  0  0  0  0  0  0  0  0  0  0  0
   -6.4694    0.8518   -6.2709 H   0  0  0  0  0  0  0  0  0  0  0  0
   -6.6047    2.5641   -4.4044 H   0  0  0  0  0  0  0  0  0  0  0  0
   -4.8724    3.0880   -4.7594 H   0  0  0  0  0  0  0  0  0  0  0  0
   -2.5308   -3.7487    0.0154 H   0  0  0  0  0  0  0  0  0  0  0  0
   -0.7960   -4.4949   -0.8864 H   0  0  0  0  0  0  0  0  0  0  0  0
    0.7473   -4.6373   -0.0110 H   0  0  0  0  0  0  0  0  0  0  0  0
   -0.7788   -4.4914    0.8934 H   0  0  0  0  0  0  0  0  0  0  0  0
  1  2  1  0
  1 30  1  6
  1 31  1  0
  1 32  1  0
  2  3  1  0
  3 27  2  0
  3  4  1  0
  4  5  2  0
  4 33  1  0
  5  6  1  0
  5 34  1  0
  6  7  1  0
  6 26  2  0
  7  8  2  0
  7  9  2  0
  7 10  1  6
 10 11  1  0
 10 19  1  0
 11 12  1  0
 11 35  1  6
 11 36  1  0
 12 13  1  0
 12 37  1  1
 12 38  1  0
 13 18  2  0
 13 14  1  0
 14 15  2  0
 14 39  1  0
 15 16  1  0
 15 40  1  0
 16 17  2  0
 16 41  1  0
 17 18  1  0
 17 42  1  0
 18 43  1  0
 19 20  1  0
 19 44  1  6
 19 45  1  0
 20 21  2  0
 20 22  1  0
 22 23  1  0
 22 46  1  0
 23 25  1  0
 23 24  1  0
 23 47  1  6
 24 25  1  0
 24 48  1  6
 24 49  1  0
 25 50  1  1
 25 51  1  0
 26 27  1  0
 26 52  1  0
 27 28  1  0
 28 29  1  0
 29 53  1  6
 29 54  1  0
 29 55  1  0
M  END
$$$$
