ZINC000001741503
     RDKit          3D

 46 48  0  0  0  0  0  0  0  0999 V2000
   -0.0184    1.5028    0.0103 C   0  0  1  0  0  0  0  0  0  0  0  0
    0.0021   -0.0041    0.0020 C   0  0  0  0  0  0  0  0  0  0  0  0
    0.0060   -0.6989   -1.1973 C   0  0  0  0  0  0  0  0  0  0  0  0
    0.0255   -2.0843   -1.1603 C   0  0  0  0  0  0  0  0  0  0  0  0
    0.0309   -2.8813   -2.4393 C   0  0  1  0  0  0  0  0  0  0  0  0
    0.0397   -2.6984    0.0111 N   0  0  0  0  0  0  0  0  0  0  0  0
    0.0354   -2.0044    1.1397 C   0  0  0  0  0  0  0  0  0  0  0  0
    0.0511   -2.6793    2.3480 N   0  0  0  0  0  0  0  0  0  0  0  0
    0.0784   -4.1483    2.3839 C   0  0  1  0  0  0  0  0  0  0  0  0
    1.2832   -4.5957    3.2208 C   0  0  1  0  0  0  0  0  0  0  0  0
    1.2734   -3.8563    4.4908 N   0  0  0  0  0  0  0  0  0  0  0  0
    1.2932   -4.6638    5.9365 S   0  0  1  0  0  0  0  0  0  0  0  0
    0.7351   -3.7789    6.8981 O   0  0  0  0  0  0  0  0  0  0  0  0
    0.7723   -5.9606    5.6789 O   0  0  0  0  0  0  0  0  0  0  0  0
    2.9822   -4.8864    6.3864 C   0  0  0  0  0  0  0  0  0  0  0  0
    3.6641   -6.0158    5.9742 C   0  0  0  0  0  0  0  0  0  0  0  0
    4.9894   -6.1905    6.3272 C   0  0  0  0  0  0  0  0  0  0  0  0
    5.6325   -5.2355    7.0919 C   0  0  0  0  0  0  0  0  0  0  0  0
    4.9507   -4.1054    7.5034 C   0  0  0  0  0  0  0  0  0  0  0  0
    5.6518   -3.0644    8.3376 C   0  0  1  0  0  0  0  0  0  0  0  0
    6.9741   -3.4612    8.5639 F   0  0  0  0  0  0  0  0  0  0  0  0
    5.6417   -1.8401    7.6607 F   0  0  0  0  0  0  0  0  0  0  0  0
    4.9905   -2.9255    9.5625 F   0  0  0  0  0  0  0  0  0  0  0  0
    3.6271   -3.9287    7.1469 C   0  0  0  0  0  0  0  0  0  0  0  0
    1.2461   -2.3873    4.4550 C   0  0  1  0  0  0  0  0  0  0  0  0
    0.0469   -1.9398    3.6180 C   0  0  1  0  0  0  0  0  0  0  0  0
    0.0220   -0.6795    1.1391 N   0  0  0  0  0  0  0  0  0  0  0  0
    1.0042    1.8801    0.0026 H   0  0  0  0  0  0  0  0  0  0  0  0
   -0.5455    1.8639   -0.8728 H   0  0  0  0  0  0  0  0  0  0  0  0
   -0.5286    1.8543    0.9071 H   0  0  0  0  0  0  0  0  0  0  0  0
   -0.0062   -0.1722   -2.1401 H   0  0  0  0  0  0  0  0  0  0  0  0
    1.0598   -3.0591   -2.7522 H   0  0  0  0  0  0  0  0  0  0  0  0
   -0.4689   -3.8359   -2.2747 H   0  0  0  0  0  0  0  0  0  0  0  0
   -0.4942   -2.3254   -3.2161 H   0  0  0  0  0  0  0  0  0  0  0  0
   -0.8404   -4.5203    2.8372 H   0  0  0  0  0  0  0  0  0  0  0  0
    0.1726   -4.5373    1.3700 H   0  0  0  0  0  0  0  0  0  0  0  0
    1.2136   -5.6652    3.4196 H   0  0  0  0  0  0  0  0  0  0  0  0
    2.2046   -4.3810    2.6796 H   0  0  0  0  0  0  0  0  0  0  0  0
    3.1615   -6.7620    5.3767 H   0  0  0  0  0  0  0  0  0  0  0  0
    5.5220   -7.0733    6.0057 H   0  0  0  0  0  0  0  0  0  0  0  0
    6.6675   -5.3723    7.3682 H   0  0  0  0  0  0  0  0  0  0  0  0
    3.0945   -3.0459    7.4684 H   0  0  0  0  0  0  0  0  0  0  0  0
    1.1519   -1.9983    5.4688 H   0  0  0  0  0  0  0  0  0  0  0  0
    2.1649   -2.0153    4.0016 H   0  0  0  0  0  0  0  0  0  0  0  0
    0.1178   -0.8703    3.4199 H   0  0  0  0  0  0  0  0  0  0  0  0
   -0.8759   -2.1542    4.1570 H   0  0  0  0  0  0  0  0  0  0  0  0
  1  2  1  0
  1 28  1  6
  1 29  1  0
  1 30  1  0
  2 27  2  0
  2  3  1  0
  3  4  2  0
  3 31  1  0
  4  5  1  0
  4  6  1  0
  5 32  1  6
  5 33  1  0
  5 34  1  0
  6  7  2  0
  7  8  1  0
  7 27  1  0
  8 26  1  0
  8  9  1  0
  9 10  1  0
  9 35  1  1
  9 36  1  0
 10 11  1  0
 10 37  1  1
 10 38  1  0
 12 11  1  6
 11 25  1  0
 12 13  2  0
 12 14  2  0
 12 15  1  0
 15 24  2  0
 15 16  1  0
 16 17  2  0
 16 39  1  0
 17 18  1  0
 17 40  1  0
 18 19  2  0
 18 41  1  0
 19 20  1  0
 19 24  1  0
 20 21  1  1
 20 22  1  0
 20 23  1  0
 24 42  1  0
 25 26  1  0
 25 43  1  1
 25 44  1  0
 26 45  1  6
 26 46  1  0
M  END
$$$$
