ZINC000096479546
     RDKit          3D

 43 44  0  0  1  0  0  0  0  0999 V2000
   -0.0187    1.5258    0.0104 C   0  0  1  0  0  0  0  0  0  0  0  0
    0.0021   -0.0041    0.0020 C   0  0  2  0  0  0  0  0  0  0  0  0
    0.5293   -0.3651    0.8851 H   0  0  0  0  0  0  0  0  0  0  0  0
    0.7182   -0.4975   -1.2568 C   0  0  1  0  0  0  0  0  0  0  0  0
    2.1652   -0.0794   -1.2080 C   0  0  0  0  0  0  0  0  0  0  0  0
    2.5826    0.5511   -0.2598 O   0  0  0  0  0  0  0  0  0  0  0  0
    2.9955   -0.4062   -2.2181 N   0  0  0  0  0  0  0  0  0  0  0  0
    2.5032   -1.1644   -3.3763 C   0  0  1  0  0  0  0  0  0  0  0  0
    2.8594   -0.3988   -4.6544 C   0  0  1  0  0  0  0  0  0  0  0  0
    4.3647   -0.1239   -4.6769 C   0  0  1  0  0  0  0  0  0  0  0  0
    4.7450    0.7417   -3.4735 C   0  0  2  0  0  0  0  0  0  0  0  0
    4.1845    1.6760   -3.5058 H   0  0  0  0  0  0  0  0  0  0  0  0
    6.2217    1.0394   -3.5146 C   0  0  0  0  0  0  0  0  0  0  0  0
    6.6975    1.6340   -4.4668 O   0  0  0  0  0  0  0  0  0  0  0  0
    6.9407    0.6857   -2.5957 O   0  0  0  0  0  0  0  0  0  0  0  0
    4.4088   -0.0057   -2.1848 C   0  0  1  0  0  0  0  0  0  0  0  0
   -1.4117   -0.5257    0.0127 C   0  0  0  0  0  0  0  0  0  0  0  0
   -2.2755   -0.2024   -1.0170 C   0  0  0  0  0  0  0  0  0  0  0  0
   -3.5724   -0.6809   -1.0072 C   0  0  0  0  0  0  0  0  0  0  0  0
   -4.0053   -1.4830    0.0321 C   0  0  0  0  0  0  0  0  0  0  0  0
   -5.4193   -2.0042    0.0430 C   0  0  1  0  0  0  0  0  0  0  0  0
   -5.4672   -3.2364   -0.6178 F   0  0  0  0  0  0  0  0  0  0  0  0
   -5.8459   -2.1673    1.3654 F   0  0  0  0  0  0  0  0  0  0  0  0
   -6.2573   -1.0928   -0.6083 F   0  0  0  0  0  0  0  0  0  0  0  0
   -3.1411   -1.8074    1.0611 C   0  0  0  0  0  0  0  0  0  0  0  0
   -1.8431   -1.3321    1.0493 C   0  0  0  0  0  0  0  0  0  0  0  0
    1.0039    1.9031    0.0027 H   0  0  0  0  0  0  0  0  0  0  0  0
   -0.5459    1.8868   -0.8726 H   0  0  0  0  0  0  0  0  0  0  0  0
   -0.5289    1.8773    0.9072 H   0  0  0  0  0  0  0  0  0  0  0  0
    0.6556   -1.5845   -1.3079 H   0  0  0  0  0  0  0  0  0  0  0  0
    0.2444   -0.0644   -2.1377 H   0  0  0  0  0  0  0  0  0  0  0  0
    2.9736   -2.1475   -3.3962 H   0  0  0  0  0  0  0  0  0  0  0  0
    1.4212   -1.2761   -3.3068 H   0  0  0  0  0  0  0  0  0  0  0  0
    2.5855   -0.9957   -5.5244 H   0  0  0  0  0  0  0  0  0  0  0  0
    2.3166    0.5462   -4.6756 H   0  0  0  0  0  0  0  0  0  0  0  0
    4.9070   -1.0683   -4.6308 H   0  0  0  0  0  0  0  0  0  0  0  0
    4.6246    0.3992   -5.5972 H   0  0  0  0  0  0  0  0  0  0  0  0
    4.5855    0.6449   -1.3283 H   0  0  0  0  0  0  0  0  0  0  0  0
    5.0329   -0.8958   -2.1052 H   0  0  0  0  0  0  0  0  0  0  0  0
   -1.9373    0.4243   -1.8289 H   0  0  0  0  0  0  0  0  0  0  0  0
   -4.2475   -0.4277   -1.8113 H   0  0  0  0  0  0  0  0  0  0  0  0
   -3.4793   -2.4344    1.8729 H   0  0  0  0  0  0  0  0  0  0  0  0
   -1.1679   -1.5855    1.8533 H   0  0  0  0  0  0  0  0  0  0  0  0
  1  2  1  0
  1 27  1  6
  1 28  1  0
  1 29  1  0
  2  3  1  1
  2  4  1  0
  2 17  1  0
  4  5  1  0
  4 30  1  6
  4 31  1  0
  5  6  2  0
  5  7  1  0
  7 16  1  0
  7  8  1  0
  8  9  1  0
  8 32  1  6
  8 33  1  0
  9 10  1  0
  9 34  1  6
  9 35  1  0
 10 11  1  0
 10 36  1  1
 10 37  1  0
 11 12  1  6
 11 13  1  0
 11 16  1  0
 13 14  2  0
 13 15  1  0
 16 38  1  1
 16 39  1  0
 17 26  2  0
 17 18  1  0
 18 19  2  0
 18 40  1  0
 19 20  1  0
 19 41  1  0
 20 21  1  0
 20 25  2  0
 21 22  1  6
 21 23  1  0
 21 24  1  0
 25 26  1  0
 25 42  1  0
 26 43  1  0
M  END
$$$$
