ZINC000237809622
     RDKit          3D

 39 40  0  0  1  0  0  0  0  0999 V2000
   -0.1121    1.6660    0.0477 C   0  0  1  0  0  0  0  0  0  0  0  0
   -0.1549    0.1612    0.1170 C   0  0  0  0  0  0  0  0  0  0  0  0
   -0.3301   -0.5790   -1.0370 C   0  0  0  0  0  0  0  0  0  0  0  0
   -0.3694   -1.9596   -0.9735 C   0  0  0  0  0  0  0  0  0  0  0  0
   -0.2329   -2.5995    0.2439 C   0  0  0  0  0  0  0  0  0  0  0  0
   -0.2762   -4.1043    0.3132 C   0  0  1  0  0  0  0  0  0  0  0  0
   -0.4619   -4.6252   -0.9719 F   0  0  0  0  0  0  0  0  0  0  0  0
    0.9285   -4.5817    0.8404 F   0  0  0  0  0  0  0  0  0  0  0  0
   -1.3355   -4.5030    1.1355 F   0  0  0  0  0  0  0  0  0  0  0  0
   -0.0563   -1.8592    1.3981 C   0  0  0  0  0  0  0  0  0  0  0  0
   -0.0132   -0.4792    1.3341 C   0  0  0  0  0  0  0  0  0  0  0  0
    0.2120    0.4644    2.8050 S   0  0  1  0  0  0  0  0  0  0  0  0
   -0.7977    1.4642    2.7989 O   0  0  0  0  0  0  0  0  0  0  0  0
    0.3721   -0.4720    3.8618 O   0  0  0  0  0  0  0  0  0  0  0  0
    1.6578    1.2590    2.6612 N   0  0  0  0  0  0  0  0  0  0  0  0
    1.8289    2.6630    2.2456 C   0  0  1  0  0  0  0  0  0  0  0  0
    3.2694    2.7365    1.6805 C   0  0  1  0  0  0  0  0  0  0  0  0
    4.0283    1.7788    2.6366 C   0  0  1  0  0  0  0  0  0  0  0  0
    2.9829    0.6829    2.9330 C   0  0  1  0  0  0  0  0  0  0  0  0
    3.1497   -0.1746    2.2810 H   0  0  0  0  0  0  0  0  0  0  0  0
    3.0832    0.2503    4.3971 C   0  0  1  0  0  0  0  0  0  0  0  0
    4.3981   -0.3584    4.6389 N   0  0  1  0  0  0  0  0  0  0  0  0
    4.5451   -1.1123    3.9846 H   0  0  0  0  0  0  0  0  0  0  0  0
    5.1184    0.3376    4.5174 H   0  0  0  0  0  0  0  0  0  0  0  0
    4.4339   -0.7187    5.5807 H   0  0  0  0  0  0  0  0  0  0  0  0
    0.9247    1.9977   -0.0085 H   0  0  0  0  0  0  0  0  0  0  0  0
   -0.6504    2.0044   -0.8376 H   0  0  0  0  0  0  0  0  0  0  0  0
   -0.5796    2.0841    0.9392 H   0  0  0  0  0  0  0  0  0  0  0  0
   -0.4367   -0.0790   -1.9883 H   0  0  0  0  0  0  0  0  0  0  0  0
   -0.5070   -2.5379   -1.8752 H   0  0  0  0  0  0  0  0  0  0  0  0
    0.0507   -2.3592    2.3494 H   0  0  0  0  0  0  0  0  0  0  0  0
    1.1047    2.9209    1.4729 H   0  0  0  0  0  0  0  0  0  0  0  0
    1.7233    3.3280    3.1028 H   0  0  0  0  0  0  0  0  0  0  0  0
    3.3053    2.3728    0.6536 H   0  0  0  0  0  0  0  0  0  0  0  0
    3.6644    3.7502    1.7483 H   0  0  0  0  0  0  0  0  0  0  0  0
    4.9042    1.3564    2.1441 H   0  0  0  0  0  0  0  0  0  0  0  0
    4.3117    2.2946    3.5541 H   0  0  0  0  0  0  0  0  0  0  0  0
    2.9616    1.1205    5.0422 H   0  0  0  0  0  0  0  0  0  0  0  0
    2.3007   -0.4763    4.6158 H   0  0  0  0  0  0  0  0  0  0  0  0
  1  2  1  0
  1 26  1  6
  1 27  1  0
  1 28  1  0
  2 11  2  0
  2  3  1  0
  3  4  2  0
  3 29  1  0
  4  5  1  0
  4 30  1  0
  5  6  1  0
  5 10  2  0
  6  7  1  6
  6  8  1  0
  6  9  1  0
 10 11  1  0
 10 31  1  0
 11 12  1  0
 12 13  2  0
 12 14  2  0
 12 15  1  6
 15 19  1  0
 15 16  1  0
 16 17  1  0
 16 32  1  6
 16 33  1  0
 17 18  1  0
 17 34  1  6
 17 35  1  0
 18 19  1  0
 18 36  1  6
 18 37  1  0
 19 20  1  6
 19 21  1  0
 21 22  1  0
 21 38  1  1
 21 39  1  0
 22 23  1  6
 22 24  1  0
 22 25  1  0
M  CHG  1  22   1
M  END
$$$$
