ZINC000028207189
     RDKit          3D

 44 44  0  0  0  0  0  0  0  0999 V2000
   -0.0173    1.4248    0.0099 C   0  0  1  0  0  0  0  0  0  0  0  0
    0.0021   -0.0041    0.0020 O   0  0  0  0  0  0  0  0  0  0  0  0
   -1.2953   -0.6030    0.0112 C   0  0  1  0  0  0  0  0  0  0  0  0
   -1.1538   -2.1264    0.0017 C   0  0  1  0  0  0  0  0  0  0  0  0
   -2.5429   -2.7677    0.0115 C   0  0  1  0  0  0  0  0  0  0  0  0
   -2.4075   -4.2264    0.0023 N   0  0  0  0  0  0  0  0  0  0  0  0
   -3.5073   -5.0054    0.0087 C   0  0  0  0  0  0  0  0  0  0  0  0
   -4.6092   -4.4987    0.0219 O   0  0  0  0  0  0  0  0  0  0  0  0
   -3.3680   -6.5059   -0.0007 C   0  0  1  0  0  0  0  0  0  0  0  0
   -4.6653   -7.1048    0.0084 O   0  0  0  0  0  0  0  0  0  0  0  0
   -4.7181   -8.4628    0.0017 C   0  0  0  0  0  0  0  0  0  0  0  0
   -3.5451   -9.2036   -0.0077 C   0  0  0  0  0  0  0  0  0  0  0  0
   -3.6014  -10.5839   -0.0141 C   0  0  0  0  0  0  0  0  0  0  0  0
   -4.8253  -11.2271   -0.0117 C   0  0  0  0  0  0  0  0  0  0  0  0
   -4.8937  -12.9877   -0.0204 S   0  0  1  0  0  0  0  0  0  0  0  0
   -6.1606  -13.3374   -0.5607 O   0  0  0  0  0  0  0  0  0  0  0  0
   -3.6630  -13.4343   -0.5730 O   0  0  0  0  0  0  0  0  0  0  0  0
   -4.9052  -13.4857    1.5589 N   0  0  0  0  0  0  0  0  0  0  0  0
   -6.1781  -13.6568    2.2637 C   0  0  1  0  0  0  0  0  0  0  0  0
   -3.6425  -13.7552    2.2512 C   0  0  1  0  0  0  0  0  0  0  0  0
   -5.9958  -10.4910   -0.0019 C   0  0  0  0  0  0  0  0  0  0  0  0
   -5.9448   -9.1105    0.0099 C   0  0  0  0  0  0  0  0  0  0  0  0
    1.0053    1.8021    0.0021 H   0  0  0  0  0  0  0  0  0  0  0  0
   -0.5445    1.7859   -0.8732 H   0  0  0  0  0  0  0  0  0  0  0  0
   -0.5275    1.7763    0.9067 H   0  0  0  0  0  0  0  0  0  0  0  0
   -1.8320   -0.2936    0.9080 H   0  0  0  0  0  0  0  0  0  0  0  0
   -1.8490   -0.2840   -0.8718 H   0  0  0  0  0  0  0  0  0  0  0  0
   -0.6171   -2.4359   -0.8952 H   0  0  0  0  0  0  0  0  0  0  0  0
   -0.6001   -2.4454    0.8847 H   0  0  0  0  0  0  0  0  0  0  0  0
   -3.0796   -2.4582    0.9083 H   0  0  0  0  0  0  0  0  0  0  0  0
   -3.0966   -2.4487   -0.8716 H   0  0  0  0  0  0  0  0  0  0  0  0
   -1.5262   -4.6316   -0.0082 H   0  0  0  0  0  0  0  0  0  0  0  0
   -2.8312   -6.8153   -0.8975 H   0  0  0  0  0  0  0  0  0  0  0  0
   -2.8143   -6.8249    0.8823 H   0  0  0  0  0  0  0  0  0  0  0  0
   -2.5889   -8.7017   -0.0104 H   0  0  0  0  0  0  0  0  0  0  0  0
   -2.6886  -11.1611   -0.0214 H   0  0  0  0  0  0  0  0  0  0  0  0
   -6.5332  -14.6786    2.1294 H   0  0  0  0  0  0  0  0  0  0  0  0
   -6.0347  -13.4587    3.3259 H   0  0  0  0  0  0  0  0  0  0  0  0
   -6.9133  -12.9606    1.8602 H   0  0  0  0  0  0  0  0  0  0  0  0
   -3.2899  -12.8427    2.7320 H   0  0  0  0  0  0  0  0  0  0  0  0
   -3.7992  -14.5262    3.0056 H   0  0  0  0  0  0  0  0  0  0  0  0
   -2.8991  -14.0971    1.5311 H   0  0  0  0  0  0  0  0  0  0  0  0
   -6.9505  -10.9958    0.0004 H   0  0  0  0  0  0  0  0  0  0  0  0
   -6.8593   -8.5360    0.0176 H   0  0  0  0  0  0  0  0  0  0  0  0
  1  2  1  0
  1 23  1  6
  1 24  1  0
  1 25  1  0
  2  3  1  0
  3  4  1  0
  3 26  1  1
  3 27  1  0
  4  5  1  0
  4 28  1  6
  4 29  1  0
  5  6  1  0
  5 30  1  1
  5 31  1  0
  6  7  1  0
  6 32  1  0
  7  8  2  0
  7  9  1  0
  9 10  1  0
  9 33  1  6
  9 34  1  0
 10 11  1  0
 11 22  2  0
 11 12  1  0
 12 13  2  0
 12 35  1  0
 13 14  1  0
 13 36  1  0
 14 15  1  0
 14 21  2  0
 15 16  2  0
 15 17  2  0
 15 18  1  1
 18 19  1  0
 18 20  1  0
 19 37  1  1
 19 38  1  0
 19 39  1  0
 20 40  1  1
 20 41  1  0
 20 42  1  0
 21 22  1  0
 21 43  1  0
 22 44  1  0
M  END
$$$$
