ZINC000006584916
     RDKit          3D

 43 44  0  0  0  0  0  0  0  0999 V2000
   -0.0169    1.4874    0.0302 C   0  0  1  0  0  0  0  0  0  0  0  0
   -0.0070   -0.0425    0.0175 C   0  0  1  0  0  0  0  0  0  0  0  0
   -1.3849   -0.5399    0.0217 N   0  0  0  0  0  0  0  0  0  0  0  0
   -2.1190   -0.6741   -1.2390 C   0  0  1  0  0  0  0  0  0  0  0  0
   -1.7892   -2.0236   -1.8800 C   0  0  1  0  0  0  0  0  0  0  0  0
   -2.1128   -0.9504    1.4514 S   0  0  1  0  0  0  0  0  0  0  0  0
   -3.1455   -1.8706    1.1262 O   0  0  0  0  0  0  0  0  0  0  0  0
   -1.0651   -1.2485    2.3639 O   0  0  0  0  0  0  0  0  0  0  0  0
   -2.9103    0.4961    2.0648 C   0  0  0  0  0  0  0  0  0  0  0  0
   -2.2232    1.3633    2.8936 C   0  0  0  0  0  0  0  0  0  0  0  0
   -2.8437    2.5002    3.3783 C   0  0  0  0  0  0  0  0  0  0  0  0
   -4.1572    2.7730    3.0337 C   0  0  0  0  0  0  0  0  0  0  0  0
   -4.7684    3.8907    3.5091 O   0  0  0  0  0  0  0  0  0  0  0  0
   -3.9962    4.7404    4.3598 C   0  0  1  0  0  0  0  0  0  0  0  0
   -4.8506    1.8993    2.1982 C   0  0  0  0  0  0  0  0  0  0  0  0
   -6.1784    2.1697    1.8464 N   0  0  0  0  0  0  0  0  0  0  0  0
   -6.6309    1.8417    0.6200 C   0  0  0  0  0  0  0  0  0  0  0  0
   -5.9110    1.2383   -0.1524 O   0  0  0  0  0  0  0  0  0  0  0  0
   -7.9989    2.2143    0.2148 C   0  0  0  0  0  0  0  0  0  0  0  0
   -8.6021    1.9504   -0.9850 C   0  0  0  0  0  0  0  0  0  0  0  0
   -9.8887    2.5170   -0.8484 C   0  0  0  0  0  0  0  0  0  0  0  0
   -9.9411    3.0372    0.3434 N   0  0  0  0  0  0  0  0  0  0  0  0
   -8.9091    2.8779    0.9524 O   0  0  0  0  0  0  0  0  0  0  0  0
   -4.2196    0.7638    1.7115 C   0  0  0  0  0  0  0  0  0  0  0  0
    1.0083    1.8575    0.0272 H   0  0  0  0  0  0  0  0  0  0  0  0
   -0.5384    1.8547   -0.8536 H   0  0  0  0  0  0  0  0  0  0  0  0
   -0.5278    1.8400    0.9262 H   0  0  0  0  0  0  0  0  0  0  0  0
    0.5039   -0.3951   -0.8785 H   0  0  0  0  0  0  0  0  0  0  0  0
    0.5145   -0.4098    0.9014 H   0  0  0  0  0  0  0  0  0  0  0  0
   -3.1899   -0.6166   -1.0438 H   0  0  0  0  0  0  0  0  0  0  0  0
   -1.8293    0.1299   -1.9155 H   0  0  0  0  0  0  0  0  0  0  0  0
   -2.0789   -2.8277   -1.2035 H   0  0  0  0  0  0  0  0  0  0  0  0
   -2.3354   -2.1235   -2.8180 H   0  0  0  0  0  0  0  0  0  0  0  0
   -0.7184   -2.0811   -2.0752 H   0  0  0  0  0  0  0  0  0  0  0  0
   -1.1991    1.1521    3.1637 H   0  0  0  0  0  0  0  0  0  0  0  0
   -2.3041    3.1753    4.0259 H   0  0  0  0  0  0  0  0  0  0  0  0
   -3.1180    5.0941    3.8197 H   0  0  0  0  0  0  0  0  0  0  0  0
   -4.6014    5.5932    4.6676 H   0  0  0  0  0  0  0  0  0  0  0  0
   -3.6803    4.1821    5.2411 H   0  0  0  0  0  0  0  0  0  0  0  0
   -6.7728    2.5932    2.4854 H   0  0  0  0  0  0  0  0  0  0  0  0
   -8.1904    1.4305   -1.8374 H   0  0  0  0  0  0  0  0  0  0  0  0
  -10.6751    2.5188   -1.5886 H   0  0  0  0  0  0  0  0  0  0  0  0
   -4.7540    0.0846    1.0638 H   0  0  0  0  0  0  0  0  0  0  0  0
  1  2  1  0
  1 25  1  1
  1 26  1  0
  1 27  1  0
  2  3  1  0
  2 28  1  6
  2 29  1  0
  3  4  1  0
  6  3  1  6
  4  5  1  0
  4 30  1  1
  4 31  1  0
  5 32  1  1
  5 33  1  0
  5 34  1  0
  6  7  2  0
  6  8  2  0
  6  9  1  0
  9 24  2  0
  9 10  1  0
 10 11  2  0
 10 35  1  0
 11 12  1  0
 11 36  1  0
 12 13  1  0
 12 15  2  0
 13 14  1  0
 14 37  1  6
 14 38  1  0
 14 39  1  0
 15 16  1  0
 15 24  1  0
 16 17  1  0
 16 40  1  0
 17 18  2  0
 17 19  1  0
 19 23  1  0
 19 20  2  0
 20 21  1  0
 20 41  1  0
 21 22  2  0
 21 42  1  0
 22 23  1  0
 24 43  1  0
M  END
$$$$
