ZINC000003391894
     RDKit          3D

 47 48  0  0  0  0  0  0  0  0999 V2000
   -0.0173    1.4248    0.0099 C   0  0  1  0  0  0  0  0  0  0  0  0
    0.0021   -0.0041    0.0020 O   0  0  0  0  0  0  0  0  0  0  0  0
   -1.2953   -0.6030    0.0112 C   0  0  1  0  0  0  0  0  0  0  0  0
   -1.1538   -2.1264    0.0017 C   0  0  1  0  0  0  0  0  0  0  0  0
   -2.5429   -2.7677    0.0115 C   0  0  1  0  0  0  0  0  0  0  0  0
   -2.4075   -4.2264    0.0023 N   0  0  0  0  0  0  0  0  0  0  0  0
   -2.2176   -4.9523    1.2606 C   0  0  1  0  0  0  0  0  0  0  0  0
   -3.5592   -5.2254    1.8904 C   0  0  0  0  0  0  0  0  0  0  0  0
   -4.5740   -4.8505    1.3422 O   0  0  0  0  0  0  0  0  0  0  0  0
   -3.6312   -5.8861    3.0629 N   0  0  0  0  0  0  0  0  0  0  0  0
   -4.9354   -6.1516    3.6751 C   0  0  1  0  0  0  0  0  0  0  0  0
   -5.1711   -7.5461    4.2588 C   0  0  1  0  0  0  0  0  0  0  0  0
   -4.9768   -6.3491    5.1918 C   0  0  1  0  0  0  0  0  0  0  0  0
   -2.4690   -5.0547   -1.4303 S   0  0  1  0  0  0  0  0  0  0  0  0
   -2.8632   -6.3818   -1.1099 O   0  0  0  0  0  0  0  0  0  0  0  0
   -3.1837   -4.2299   -2.3403 O   0  0  0  0  0  0  0  0  0  0  0  0
   -0.8204   -5.1597   -2.0433 C   0  0  0  0  0  0  0  0  0  0  0  0
   -0.3254   -4.1673   -2.8685 C   0  0  0  0  0  0  0  0  0  0  0  0
    0.9680   -4.2497   -3.3494 C   0  0  0  0  0  0  0  0  0  0  0  0
    1.7665   -5.3242   -3.0048 C   0  0  0  0  0  0  0  0  0  0  0  0
    3.1763   -5.4142   -3.5294 C   0  0  1  0  0  0  0  0  0  0  0  0
    1.2719   -6.3158   -2.1784 C   0  0  0  0  0  0  0  0  0  0  0  0
   -0.0202   -6.2315   -1.6944 C   0  0  0  0  0  0  0  0  0  0  0  0
    1.0053    1.8021    0.0021 H   0  0  0  0  0  0  0  0  0  0  0  0
   -0.5445    1.7859   -0.8732 H   0  0  0  0  0  0  0  0  0  0  0  0
   -0.5275    1.7763    0.9067 H   0  0  0  0  0  0  0  0  0  0  0  0
   -1.8320   -0.2936    0.9080 H   0  0  0  0  0  0  0  0  0  0  0  0
   -1.8490   -0.2840   -0.8718 H   0  0  0  0  0  0  0  0  0  0  0  0
   -0.6171   -2.4359   -0.8952 H   0  0  0  0  0  0  0  0  0  0  0  0
   -0.6001   -2.4454    0.8847 H   0  0  0  0  0  0  0  0  0  0  0  0
   -3.0796   -2.4582    0.9083 H   0  0  0  0  0  0  0  0  0  0  0  0
   -3.0966   -2.4487   -0.8716 H   0  0  0  0  0  0  0  0  0  0  0  0
   -1.7103   -5.8965    1.0624 H   0  0  0  0  0  0  0  0  0  0  0  0
   -1.6132   -4.3507    1.9395 H   0  0  0  0  0  0  0  0  0  0  0  0
   -2.8196   -6.1859    3.5013 H   0  0  0  0  0  0  0  0  0  0  0  0
   -5.7841   -5.6505    3.2095 H   0  0  0  0  0  0  0  0  0  0  0  0
   -6.1750   -7.9628    4.1771 H   0  0  0  0  0  0  0  0  0  0  0  0
   -4.3558   -8.2660    4.1873 H   0  0  0  0  0  0  0  0  0  0  0  0
   -4.0336   -6.2816    5.7340 H   0  0  0  0  0  0  0  0  0  0  0  0
   -5.8528   -5.9783    5.7239 H   0  0  0  0  0  0  0  0  0  0  0  0
   -0.9492   -3.3278   -3.1378 H   0  0  0  0  0  0  0  0  0  0  0  0
    1.3546   -3.4747   -3.9947 H   0  0  0  0  0  0  0  0  0  0  0  0
    3.8551   -4.9204   -2.8340 H   0  0  0  0  0  0  0  0  0  0  0  0
    3.4597   -6.4617   -3.6318 H   0  0  0  0  0  0  0  0  0  0  0  0
    3.2339   -4.9255   -4.5021 H   0  0  0  0  0  0  0  0  0  0  0  0
    1.8958   -7.1551   -1.9088 H   0  0  0  0  0  0  0  0  0  0  0  0
   -0.4066   -7.0063   -1.0488 H   0  0  0  0  0  0  0  0  0  0  0  0
  1  2  1  0
  1 24  1  6
  1 25  1  0
  1 26  1  0
  2  3  1  0
  3  4  1  0
  3 27  1  1
  3 28  1  0
  4  5  1  0
  4 29  1  6
  4 30  1  0
  5  6  1  0
  5 31  1  1
  5 32  1  0
  6  7  1  0
 14  6  1  1
  7  8  1  0
  7 33  1  6
  7 34  1  0
  8  9  2  0
  8 10  1  0
 10 11  1  0
 10 35  1  0
 11 13  1  0
 11 12  1  0
 11 36  1  6
 12 13  1  0
 12 37  1  6
 12 38  1  0
 13 39  1  1
 13 40  1  0
 14 15  2  0
 14 16  2  0
 14 17  1  0
 17 23  2  0
 17 18  1  0
 18 19  2  0
 18 41  1  0
 19 20  1  0
 19 42  1  0
 20 21  1  0
 20 22  2  0
 21 43  1  1
 21 44  1  0
 21 45  1  0
 22 23  1  0
 22 46  1  0
 23 47  1  0
M  END
$$$$
