ZINC000004454906
     RDKit          3D

 48 49  0  0  1  0  0  0  0  0999 V2000
   -0.0543    1.5401    0.0457 C   0  0  1  0  0  0  0  0  0  0  0  0
   -0.0384    0.0102    0.0372 C   0  0  1  0  0  0  0  0  0  0  0  0
    0.6776   -0.4773    1.2188 N   0  0  0  0  0  0  0  0  0  0  0  0
   -0.0300   -0.6316    2.4922 C   0  0  1  0  0  0  0  0  0  0  0  0
   -0.7213   -1.9960    2.5294 C   0  0  1  0  0  0  0  0  0  0  0  0
    2.2869   -0.8538    1.1149 S   0  0  1  0  0  0  0  0  0  0  0  0
    2.5525   -1.7731    2.1654 O   0  0  0  0  0  0  0  0  0  0  0  0
    2.5443   -1.1409   -0.2528 O   0  0  0  0  0  0  0  0  0  0  0  0
    3.1907    0.6103    1.4946 C   0  0  0  0  0  0  0  0  0  0  0  0
    3.5355    1.4890    0.4848 C   0  0  0  0  0  0  0  0  0  0  0  0
    4.2448    2.6397    0.7766 C   0  0  0  0  0  0  0  0  0  0  0  0
    4.6118    2.9146    2.0837 C   0  0  0  0  0  0  0  0  0  0  0  0
    5.3089    4.0458    2.3723 O   0  0  0  0  0  0  0  0  0  0  0  0
    5.6296    4.9072    1.2781 C   0  0  1  0  0  0  0  0  0  0  0  0
    4.2646    2.0293    3.1020 C   0  0  0  0  0  0  0  0  0  0  0  0
    4.6327    2.3023    4.4261 N   0  0  0  0  0  0  0  0  0  0  0  0
    4.7582    1.2945    5.3122 C   0  0  0  0  0  0  0  0  0  0  0  0
    4.6513    0.1445    4.9418 O   0  0  0  0  0  0  0  0  0  0  0  0
    5.0314    1.5965    6.7631 C   0  0  1  0  0  0  0  0  0  0  0  0
    5.9289    2.2076    6.8593 H   0  0  0  0  0  0  0  0  0  0  0  0
    3.8178    2.3195    7.3997 C   0  0  1  0  0  0  0  0  0  0  0  0
    4.0079    1.9522    8.8967 C   0  0  1  0  0  0  0  0  0  0  0  0
    4.6021    0.5299    8.8122 C   0  0  1  0  0  0  0  0  0  0  0  0
    5.1767    0.3766    7.5075 O   0  0  0  0  0  0  0  0  0  0  0  0
    3.5483    0.8801    2.8024 C   0  0  0  0  0  0  0  0  0  0  0  0
    0.9694    1.9142    0.0302 H   0  0  0  0  0  0  0  0  0  0  0  0
   -0.5870    1.9028   -0.8333 H   0  0  0  0  0  0  0  0  0  0  0  0
   -0.5566    1.8932    0.9463 H   0  0  0  0  0  0  0  0  0  0  0  0
   -1.0620   -0.3639    0.0527 H   0  0  0  0  0  0  0  0  0  0  0  0
    0.4640   -0.3429   -0.8634 H   0  0  0  0  0  0  0  0  0  0  0  0
    0.6822   -0.5627    3.3144 H   0  0  0  0  0  0  0  0  0  0  0  0
   -0.7764    0.1566    2.5910 H   0  0  0  0  0  0  0  0  0  0  0  0
   -1.4336   -2.0650    1.7072 H   0  0  0  0  0  0  0  0  0  0  0  0
    0.0250   -2.7843    2.4306 H   0  0  0  0  0  0  0  0  0  0  0  0
   -1.2479   -2.1109    3.4768 H   0  0  0  0  0  0  0  0  0  0  0  0
    3.2505    1.2762   -0.5350 H   0  0  0  0  0  0  0  0  0  0  0  0
    4.5130    3.3240   -0.0147 H   0  0  0  0  0  0  0  0  0  0  0  0
    6.2385    4.3645    0.5549 H   0  0  0  0  0  0  0  0  0  0  0  0
    4.7102    5.2438    0.7991 H   0  0  0  0  0  0  0  0  0  0  0  0
    6.1849    5.7701    1.6457 H   0  0  0  0  0  0  0  0  0  0  0  0
    4.7973    3.2167    4.7051 H   0  0  0  0  0  0  0  0  0  0  0  0
    3.8792    3.3973    7.2488 H   0  0  0  0  0  0  0  0  0  0  0  0
    2.8782    1.9236    7.0143 H   0  0  0  0  0  0  0  0  0  0  0  0
    4.7064    2.6365    9.3784 H   0  0  0  0  0  0  0  0  0  0  0  0
    3.0508    1.9424    9.4183 H   0  0  0  0  0  0  0  0  0  0  0  0
    5.3742    0.4060    9.5716 H   0  0  0  0  0  0  0  0  0  0  0  0
    3.8147   -0.2092    8.9597 H   0  0  0  0  0  0  0  0  0  0  0  0
    3.2772    0.1920    3.5894 H   0  0  0  0  0  0  0  0  0  0  0  0
  1  2  1  0
  1 26  1  6
  1 27  1  0
  1 28  1  0
  2  3  1  0
  2 29  1  1
  2 30  1  0
  3  4  1  0
  6  3  1  6
  4  5  1  0
  4 31  1  1
  4 32  1  0
  5 33  1  6
  5 34  1  0
  5 35  1  0
  6  7  2  0
  6  8  2  0
  6  9  1  0
  9 25  2  0
  9 10  1  0
 10 11  2  0
 10 36  1  0
 11 12  1  0
 11 37  1  0
 12 13  1  0
 12 15  2  0
 13 14  1  0
 14 38  1  6
 14 39  1  0
 14 40  1  0
 15 16  1  0
 15 25  1  0
 16 17  1  0
 16 41  1  0
 17 18  2  0
 17 19  1  0
 19 20  1  6
 19 24  1  0
 19 21  1  0
 21 22  1  0
 21 42  1  1
 21 43  1  0
 22 23  1  0
 22 44  1  1
 22 45  1  0
 23 24  1  0
 23 46  1  1
 23 47  1  0
 25 48  1  0
M  END
$$$$
