ZINC000169828255
     RDKit          3D

 28 28  0  0  0  0  0  0  0  0999 V2000
   -0.0187    1.5258    0.0104 C   0  0  1  0  0  0  0  0  0  0  0  0
    0.0021   -0.0041    0.0020 C   0  0  1  0  0  0  0  0  0  0  0  0
    0.7421   -0.5109    1.2415 C   0  0  1  0  0  0  0  0  0  0  0  0
   -1.4117   -0.5257    0.0127 C   0  0  0  0  0  0  0  0  0  0  0  0
   -2.2363   -0.2169    1.0331 N   0  0  0  0  0  0  0  0  0  0  0  0
   -1.8076   -1.2234   -0.8969 O   0  0  0  0  0  0  0  0  0  0  0  0
    0.7074   -0.4901   -1.2379 C   0  0  0  0  0  0  0  0  0  0  0  0
    1.2168    0.4202   -2.1450 C   0  0  0  0  0  0  0  0  0  0  0  0
    1.8638   -0.0256   -3.2823 C   0  0  0  0  0  0  0  0  0  0  0  0
    2.0019   -1.3817   -3.5123 C   0  0  0  0  0  0  0  0  0  0  0  0
    2.7068   -1.8677   -4.7524 C   0  0  1  0  0  0  0  0  0  0  0  0
    4.0728   -2.0114   -4.4863 F   0  0  0  0  0  0  0  0  0  0  0  0
    2.1743   -3.1026   -5.1378 F   0  0  0  0  0  0  0  0  0  0  0  0
    2.5279   -0.9401   -5.7843 F   0  0  0  0  0  0  0  0  0  0  0  0
    1.4937   -2.2919   -2.6045 C   0  0  0  0  0  0  0  0  0  0  0  0
    0.8501   -1.8461   -1.4653 C   0  0  0  0  0  0  0  0  0  0  0  0
    1.0039    1.9031    0.0027 H   0  0  0  0  0  0  0  0  0  0  0  0
   -0.5459    1.8868   -0.8726 H   0  0  0  0  0  0  0  0  0  0  0  0
   -0.5289    1.8773    0.9072 H   0  0  0  0  0  0  0  0  0  0  0  0
    0.2319   -0.1594    2.1383 H   0  0  0  0  0  0  0  0  0  0  0  0
    0.7568   -1.6008    1.2356 H   0  0  0  0  0  0  0  0  0  0  0  0
    1.7647   -0.1336    1.2338 H   0  0  0  0  0  0  0  0  0  0  0  0
   -1.9197    0.3412    1.7606 H   0  0  0  0  0  0  0  0  0  0  0  0
   -3.1463   -0.5526    1.0400 H   0  0  0  0  0  0  0  0  0  0  0  0
    1.1090    1.4797   -1.9653 H   0  0  0  0  0  0  0  0  0  0  0  0
    2.2612    0.6856   -3.9913 H   0  0  0  0  0  0  0  0  0  0  0  0
    1.6019   -3.3514   -2.7840 H   0  0  0  0  0  0  0  0  0  0  0  0
    0.4531   -2.5573   -0.7560 H   0  0  0  0  0  0  0  0  0  0  0  0
  1  2  1  0
  1 17  1  6
  1 18  1  0
  1 19  1  0
  2  3  1  0
  2  4  1  1
  2  7  1  0
  3 20  1  1
  3 21  1  0
  3 22  1  0
  4  5  1  0
  4  6  2  0
  5 23  1  0
  5 24  1  0
  7 16  2  0
  7  8  1  0
  8  9  2  0
  8 25  1  0
  9 10  1  0
  9 26  1  0
 10 11  1  0
 10 15  2  0
 11 12  1  1
 11 13  1  0
 11 14  1  0
 15 16  1  0
 15 27  1  0
 16 28  1  0
M  END
$$$$
