ZINC000253430671
     RDKit          3D

 35 36  0  0  1  0  0  0  0  0999 V2000
   -0.0015   -0.2419    0.4075 O   0  0  0  0  0  0  0  0  0  0  0  0
   -0.0011    1.1752    0.3024 S   0  0  1  0  0  0  0  0  0  0  0  0
    1.1887    1.9510    0.2595 O   0  0  0  0  0  0  0  0  0  0  0  0
   -0.9029    1.5660   -1.1600 C   0  0  0  0  0  0  0  0  0  0  0  0
   -0.3846    2.4642   -2.0724 C   0  0  0  0  0  0  0  0  0  0  0  0
   -1.0921    2.7717   -3.2201 C   0  0  0  0  0  0  0  0  0  0  0  0
   -0.5242    3.7519   -4.2139 C   0  0  1  0  0  0  0  0  0  0  0  0
    0.2501    3.0656   -5.1555 F   0  0  0  0  0  0  0  0  0  0  0  0
   -1.5701    4.4152   -4.8645 F   0  0  0  0  0  0  0  0  0  0  0  0
    0.2747    4.6850   -3.5442 F   0  0  0  0  0  0  0  0  0  0  0  0
   -2.3192    2.1810   -3.4575 C   0  0  0  0  0  0  0  0  0  0  0  0
   -2.8419    1.2817   -2.5481 C   0  0  0  0  0  0  0  0  0  0  0  0
   -2.1317    0.9675   -1.3987 C   0  0  0  0  0  0  0  0  0  0  0  0
   -2.6436    0.0832   -0.5027 O   0  0  0  0  0  0  0  0  0  0  0  0
   -0.8812    1.7396    1.5866 N   0  0  0  0  0  0  0  0  0  0  0  0
   -1.8122    0.9431    2.4066 C   0  0  1  0  0  0  0  0  0  0  0  0
   -2.7953    1.9779    3.0085 C   0  0  1  0  0  0  0  0  0  0  0  0
   -1.8537    3.1809    3.2799 C   0  0  1  0  0  0  0  0  0  0  0  0
   -0.8588    3.1164    2.1019 C   0  0  1  0  0  0  0  0  0  0  0  0
   -1.1688    3.8059    1.3166 H   0  0  0  0  0  0  0  0  0  0  0  0
    0.5463    3.4785    2.5871 C   0  0  1  0  0  0  0  0  0  0  0  0
    0.9191    2.6093    3.6584 O   0  0  0  0  0  0  0  0  0  0  0  0
    0.5739    2.9269   -1.8891 H   0  0  0  0  0  0  0  0  0  0  0  0
   -2.8700    2.4231   -4.3544 H   0  0  0  0  0  0  0  0  0  0  0  0
   -3.8008    0.8208   -2.7339 H   0  0  0  0  0  0  0  0  0  0  0  0
   -2.3354   -0.8250   -0.6265 H   0  0  0  0  0  0  0  0  0  0  0  0
   -2.3490    0.2274    1.7839 H   0  0  0  0  0  0  0  0  0  0  0  0
   -1.2722    0.4267    3.2001 H   0  0  0  0  0  0  0  0  0  0  0  0
   -3.5712    2.2433    2.2904 H   0  0  0  0  0  0  0  0  0  0  0  0
   -3.2332    1.6076    3.9355 H   0  0  0  0  0  0  0  0  0  0  0  0
   -2.4110    4.1176    3.2662 H   0  0  0  0  0  0  0  0  0  0  0  0
   -1.3314    3.0555    4.2284 H   0  0  0  0  0  0  0  0  0  0  0  0
    1.2543    3.3672    1.7658 H   0  0  0  0  0  0  0  0  0  0  0  0
    0.5551    4.5108    2.9369 H   0  0  0  0  0  0  0  0  0  0  0  0
    1.8007    2.7818    4.0162 H   0  0  0  0  0  0  0  0  0  0  0  0
  1  2  2  0
  2  3  2  0
  2  4  1  0
  2 15  1  1
  4 13  2  0
  4  5  1  0
  5  6  2  0
  5 23  1  0
  6  7  1  0
  6 11  1  0
  7  8  1  6
  7  9  1  0
  7 10  1  0
 11 12  2  0
 11 24  1  0
 12 13  1  0
 12 25  1  0
 13 14  1  0
 14 26  1  0
 15 19  1  0
 15 16  1  0
 16 17  1  0
 16 27  1  6
 16 28  1  0
 17 18  1  0
 17 29  1  6
 17 30  1  0
 18 19  1  0
 18 31  1  1
 18 32  1  0
 19 20  1  6
 19 21  1  0
 21 22  1  0
 21 33  1  6
 21 34  1  0
 22 35  1  0
M  END
$$$$
