ZINC000207976157
     RDKit          3D

 45 46  0  0  0  0  0  0  0  0999 V2000
    0.3248    1.3792   -0.3656 C   0  0  1  0  0  0  0  0  0  0  0  0
    0.2784   -0.0467   -0.2842 O   0  0  0  0  0  0  0  0  0  0  0  0
   -1.0367   -0.5931   -0.4026 C   0  0  1  0  0  0  0  0  0  0  0  0
   -0.9662   -2.1182   -0.3016 C   0  0  1  0  0  0  0  0  0  0  0  0
   -0.5077   -2.4983    1.0368 N   0  0  0  0  0  0  0  0  0  0  0  0
   -1.4694   -2.6103    2.1362 C   0  0  1  0  0  0  0  0  0  0  0  0
   -2.0950   -3.9812    2.1188 C   0  0  0  0  0  0  0  0  0  0  0  0
   -3.2077   -4.3462    1.4569 C   0  0  0  0  0  0  0  0  0  0  0  0
   -3.4352   -5.6482    1.6950 O   0  0  0  0  0  0  0  0  0  0  0  0
   -2.4785   -6.1291    2.5057 C   0  0  0  0  0  0  0  0  0  0  0  0
   -1.6215   -5.1320    2.7899 C   0  0  0  0  0  0  0  0  0  0  0  0
    1.0978   -2.8014    1.3069 S   0  0  1  0  0  0  0  0  0  0  0  0
    1.1605   -3.6420    2.4510 O   0  0  0  0  0  0  0  0  0  0  0  0
    1.6561   -3.1572    0.0496 O   0  0  0  0  0  0  0  0  0  0  0  0
    1.8462   -1.2748    1.7696 C   0  0  0  0  0  0  0  0  0  0  0  0
    2.3718   -0.4420    0.7988 C   0  0  0  0  0  0  0  0  0  0  0  0
    2.9594    0.7551    1.1583 C   0  0  0  0  0  0  0  0  0  0  0  0
    3.0217    1.1222    2.4960 C   0  0  0  0  0  0  0  0  0  0  0  0
    3.6161    2.3348    2.8635 N   0  0  0  0  0  0  0  0  0  0  0  0
    4.2790    2.4333    4.0328 C   0  0  0  0  0  0  0  0  0  0  0  0
    4.4439    1.4467    4.7227 O   0  0  0  0  0  0  0  0  0  0  0  0
    4.7585    3.6249    4.4366 O   0  0  0  0  0  0  0  0  0  0  0  0
    5.4620    3.6565    5.7065 C   0  0  1  0  0  0  0  0  0  0  0  0
    2.4926    0.2839    3.4684 C   0  0  0  0  0  0  0  0  0  0  0  0
    1.9016   -0.9095    3.1021 C   0  0  0  0  0  0  0  0  0  0  0  0
    1.3570    1.7154   -0.2670 H   0  0  0  0  0  0  0  0  0  0  0  0
   -0.0718    1.7013   -1.3285 H   0  0  0  0  0  0  0  0  0  0  0  0
   -0.2754    1.8087    0.4365 H   0  0  0  0  0  0  0  0  0  0  0  0
   -1.6651   -0.2046    0.3988 H   0  0  0  0  0  0  0  0  0  0  0  0
   -1.4615   -0.3120   -1.3662 H   0  0  0  0  0  0  0  0  0  0  0  0
   -1.9552   -2.5402   -0.4804 H   0  0  0  0  0  0  0  0  0  0  0  0
   -0.2683   -2.4998   -1.0469 H   0  0  0  0  0  0  0  0  0  0  0  0
   -0.9556   -2.4575    3.0853 H   0  0  0  0  0  0  0  0  0  0  0  0
   -2.2462   -1.8549    2.0178 H   0  0  0  0  0  0  0  0  0  0  0  0
   -3.8154   -3.7014    0.8394 H   0  0  0  0  0  0  0  0  0  0  0  0
   -2.4071   -7.1450    2.8651 H   0  0  0  0  0  0  0  0  0  0  0  0
   -0.7443   -5.1963    3.4166 H   0  0  0  0  0  0  0  0  0  0  0  0
    2.3230   -0.7281   -0.2414 H   0  0  0  0  0  0  0  0  0  0  0  0
    3.3704    1.4048    0.3997 H   0  0  0  0  0  0  0  0  0  0  0  0
    3.5511    3.1043    2.2766 H   0  0  0  0  0  0  0  0  0  0  0  0
    4.7929    3.3256    6.5008 H   0  0  0  0  0  0  0  0  0  0  0  0
    6.3261    2.9937    5.6597 H   0  0  0  0  0  0  0  0  0  0  0  0
    5.7950    4.6737    5.9122 H   0  0  0  0  0  0  0  0  0  0  0  0
    2.5395    0.5666    4.5097 H   0  0  0  0  0  0  0  0  0  0  0  0
    1.4895   -1.5617    3.8578 H   0  0  0  0  0  0  0  0  0  0  0  0
  1  2  1  0
  1 26  1  1
  1 27  1  0
  1 28  1  0
  2  3  1  0
  3  4  1  0
  3 29  1  1
  3 30  1  0
  4  5  1  0
  4 31  1  6
  4 32  1  0
  5  6  1  0
 12  5  1  6
  6  7  1  0
  6 33  1  1
  6 34  1  0
  7 11  1  0
  7  8  2  0
  8  9  1  0
  8 35  1  0
  9 10  1  0
 10 11  2  0
 10 36  1  0
 11 37  1  0
 12 13  2  0
 12 14  2  0
 12 15  1  0
 15 25  2  0
 15 16  1  0
 16 17  2  0
 16 38  1  0
 17 18  1  0
 17 39  1  0
 18 19  1  0
 18 24  2  0
 19 20  1  0
 19 40  1  0
 20 21  2  0
 20 22  1  0
 22 23  1  0
 23 41  1  1
 23 42  1  0
 23 43  1  0
 24 25  1  0
 24 44  1  0
 25 45  1  0
M  END
$$$$
