ZINC000034812840
     RDKit          3D

 49 52  0  0  1  0  0  0  0  0999 V2000
   -2.4741    1.4379    0.0559 C   0  0  1  0  0  0  0  0  0  0  0  0
   -2.3895   -0.0667    0.0402 C   0  0  0  0  0  0  0  0  0  0  0  0
   -2.2297   -0.6759    1.0766 O   0  0  0  0  0  0  0  0  0  0  0  0
   -2.4914   -0.7352   -1.1256 N   0  0  0  0  0  0  0  0  0  0  0  0
   -2.5407   -2.2040   -1.1438 C   0  0  1  0  0  0  0  0  0  0  0  0
   -1.4235   -2.7205   -2.0588 C   0  0  1  0  0  0  0  0  0  0  0  0
   -1.4878   -1.9939   -3.3347 N   0  0  0  0  0  0  0  0  0  0  0  0
   -1.5928   -2.6767   -4.5252 C   0  0  0  0  0  0  0  0  0  0  0  0
   -1.7786   -3.9497   -4.4622 N   0  0  0  0  0  0  0  0  0  0  0  0
   -1.8859   -4.8142   -5.5101 C   0  0  0  0  0  0  0  0  0  0  0  0
   -1.2727   -6.0672   -5.4177 C   0  0  0  0  0  0  0  0  0  0  0  0
   -1.3904   -6.9752   -6.4511 C   0  0  0  0  0  0  0  0  0  0  0  0
   -2.1170   -6.6514   -7.5811 C   0  0  0  0  0  0  0  0  0  0  0  0
   -2.2548   -7.6527   -8.6989 C   0  0  1  0  0  0  0  0  0  0  0  0
   -1.5667   -8.8237   -8.3635 F   0  0  0  0  0  0  0  0  0  0  0  0
   -3.6080   -7.9474   -8.8968 F   0  0  0  0  0  0  0  0  0  0  0  0
   -1.7177   -7.1165   -9.8742 F   0  0  0  0  0  0  0  0  0  0  0  0
   -2.7189   -5.4092   -7.6883 C   0  0  0  0  0  0  0  0  0  0  0  0
   -2.5962   -4.4833   -6.6662 C   0  0  0  0  0  0  0  0  0  0  0  0
   -3.1371   -3.2483   -6.8294 O   0  0  0  0  0  0  0  0  0  0  0  0
   -2.2947   -2.1870   -6.8668 C   0  0  0  0  0  0  0  0  0  0  0  0
   -2.2317   -1.3945   -8.0007 C   0  0  0  0  0  0  0  0  0  0  0  0
   -1.3528   -0.3276   -8.0537 C   0  0  0  0  0  0  0  0  0  0  0  0
   -0.5314   -0.0469   -6.9767 C   0  0  0  0  0  0  0  0  0  0  0  0
   -0.5915   -0.8211   -5.8356 C   0  0  0  0  0  0  0  0  0  0  0  0
   -1.4894   -1.8916   -5.7652 C   0  0  0  0  0  0  0  0  0  0  0  0
   -1.4385   -0.5252   -3.3165 C   0  0  1  0  0  0  0  0  0  0  0  0
   -2.5614   -0.0084   -2.4010 C   0  0  1  0  0  0  0  0  0  0  0  0
   -2.4250    1.0579   -2.2211 H   0  0  0  0  0  0  0  0  0  0  0  0
   -3.9179   -0.2475   -3.0671 C   0  0  1  0  0  0  0  0  0  0  0  0
   -1.4698    1.8588    0.0092 H   0  0  0  0  0  0  0  0  0  0  0  0
   -3.0511    1.7783   -0.8040 H   0  0  0  0  0  0  0  0  0  0  0  0
   -2.9628    1.7647    0.9737 H   0  0  0  0  0  0  0  0  0  0  0  0
   -2.3933   -2.5874   -0.1342 H   0  0  0  0  0  0  0  0  0  0  0  0
   -3.5074   -2.5329   -1.5251 H   0  0  0  0  0  0  0  0  0  0  0  0
   -0.4558   -2.5479   -1.5879 H   0  0  0  0  0  0  0  0  0  0  0  0
   -1.5610   -3.7869   -2.2379 H   0  0  0  0  0  0  0  0  0  0  0  0
   -0.7052   -6.3254   -4.5359 H   0  0  0  0  0  0  0  0  0  0  0  0
   -0.9130   -7.9411   -6.3763 H   0  0  0  0  0  0  0  0  0  0  0  0
   -3.2861   -5.1611   -8.5733 H   0  0  0  0  0  0  0  0  0  0  0  0
   -2.8695   -1.6099   -8.8452 H   0  0  0  0  0  0  0  0  0  0  0  0
   -1.3075    0.2884   -8.9396 H   0  0  0  0  0  0  0  0  0  0  0  0
    0.1600    0.7812   -7.0290 H   0  0  0  0  0  0  0  0  0  0  0  0
    0.0523   -0.5987   -4.9975 H   0  0  0  0  0  0  0  0  0  0  0  0
   -0.4719   -0.1963   -2.9351 H   0  0  0  0  0  0  0  0  0  0  0  0
   -1.5860   -0.1417   -4.3261 H   0  0  0  0  0  0  0  0  0  0  0  0
   -4.0544   -1.3149   -3.2405 H   0  0  0  0  0  0  0  0  0  0  0  0
   -4.7118    0.1195   -2.4166 H   0  0  0  0  0  0  0  0  0  0  0  0
   -3.9538    0.2827   -4.0188 H   0  0  0  0  0  0  0  0  0  0  0  0
  1  2  1  0
  1 31  1  6
  1 32  1  0
  1 33  1  0
  2  3  2  0
  2  4  1  0
  4 28  1  0
  4  5  1  0
  5  6  1  0
  5 34  1  1
  5 35  1  0
  6  7  1  0
  6 36  1  1
  6 37  1  0
  7  8  1  0
  7 27  1  0
  8 26  1  0
  8  9  2  0
  9 10  1  0
 10 19  2  0
 10 11  1  0
 11 12  2  0
 11 38  1  0
 12 13  1  0
 12 39  1  0
 13 14  1  0
 13 18  2  0
 14 15  1  1
 14 16  1  0
 14 17  1  0
 18 19  1  0
 18 40  1  0
 19 20  1  0
 20 21  1  0
 21 26  2  0
 21 22  1  0
 22 23  2  0
 22 41  1  0
 23 24  1  0
 23 42  1  0
 24 25  2  0
 24 43  1  0
 25 26  1  0
 25 44  1  0
 27 28  1  0
 27 45  1  1
 27 46  1  0
 28 29  1  1
 28 30  1  0
 30 47  1  6
 30 48  1  0
 30 49  1  0
M  END
$$$$
