ZINC000000074478
     RDKit          3D

 36 37  0  0  0  0  0  0  0  0999 V2000
   -0.0187    1.5258    0.0104 C   0  0  1  0  0  0  0  0  0  0  0  0
    0.0021   -0.0041    0.0020 C   0  0  1  0  0  0  0  0  0  0  0  0
    0.7170   -0.4974   -1.2580 C   0  0  1  0  0  0  0  0  0  0  0  0
    0.7054   -2.0291   -1.2803 C   0  0  1  0  0  0  0  0  0  0  0  0
    1.2851   -2.5247   -0.0245 N   0  0  0  0  0  0  0  0  0  0  0  0
    2.5396   -3.6056   -0.0430 S   0  0  1  0  0  0  0  0  0  0  0  0
    2.5007   -4.2868    1.2034 O   0  0  0  0  0  0  0  0  0  0  0  0
    2.4756   -4.2730   -1.2959 O   0  0  0  0  0  0  0  0  0  0  0  0
    4.0333   -2.6710   -0.0528 C   0  0  0  0  0  0  0  0  0  0  0  0
    4.6041   -2.2930   -1.2535 C   0  0  0  0  0  0  0  0  0  0  0  0
    5.7761   -1.5597   -1.2612 C   0  0  0  0  0  0  0  0  0  0  0  0
    6.3767   -1.2042   -0.0682 C   0  0  0  0  0  0  0  0  0  0  0  0
    5.8052   -1.5815    1.1328 C   0  0  0  0  0  0  0  0  0  0  0  0
    6.4604   -1.1943    2.4336 C   0  0  1  0  0  0  0  0  0  0  0  0
    7.6237   -0.4631    2.1703 F   0  0  0  0  0  0  0  0  0  0  0  0
    5.5777   -0.4114    3.1854 F   0  0  0  0  0  0  0  0  0  0  0  0
    6.7879   -2.3488    3.1526 F   0  0  0  0  0  0  0  0  0  0  0  0
    4.6313   -2.3109    1.1406 C   0  0  0  0  0  0  0  0  0  0  0  0
    0.7310   -2.0426    1.2480 C   0  0  1  0  0  0  0  0  0  0  0  0
    0.7423   -0.5108    1.2420 C   0  0  1  0  0  0  0  0  0  0  0  0
    1.0039    1.9031    0.0027 H   0  0  0  0  0  0  0  0  0  0  0  0
   -0.5459    1.8868   -0.8726 H   0  0  0  0  0  0  0  0  0  0  0  0
   -0.5289    1.8773    0.9072 H   0  0  0  0  0  0  0  0  0  0  0  0
   -1.0206   -0.3812    0.0102 H   0  0  0  0  0  0  0  0  0  0  0  0
    0.2028   -0.1168   -2.1406 H   0  0  0  0  0  0  0  0  0  0  0  0
    1.7472   -0.1413   -1.2548 H   0  0  0  0  0  0  0  0  0  0  0  0
   -0.3204   -2.3854   -1.3749 H   0  0  0  0  0  0  0  0  0  0  0  0
    1.2978   -2.3867   -2.1225 H   0  0  0  0  0  0  0  0  0  0  0  0
    4.1347   -2.5708   -2.1857 H   0  0  0  0  0  0  0  0  0  0  0  0
    6.2225   -1.2650   -2.1994 H   0  0  0  0  0  0  0  0  0  0  0  0
    7.2926   -0.6319   -0.0743 H   0  0  0  0  0  0  0  0  0  0  0  0
    4.1848   -2.6057    2.0788 H   0  0  0  0  0  0  0  0  0  0  0  0
   -0.2926   -2.4001    1.3596 H   0  0  0  0  0  0  0  0  0  0  0  0
    1.3404   -2.4092    2.0741 H   0  0  0  0  0  0  0  0  0  0  0  0
    1.7723   -0.1546    1.2216 H   0  0  0  0  0  0  0  0  0  0  0  0
    0.2462   -0.1397    2.1388 H   0  0  0  0  0  0  0  0  0  0  0  0
  1  2  1  0
  1 21  1  6
  1 22  1  0
  1 23  1  0
  2 20  1  0
  2  3  1  0
  2 24  1  1
  3  4  1  0
  3 25  1  6
  3 26  1  0
  4  5  1  0
  4 27  1  6
  4 28  1  0
  6  5  1  1
  5 19  1  0
  6  7  2  0
  6  8  2  0
  6  9  1  0
  9 18  2  0
  9 10  1  0
 10 11  2  0
 10 29  1  0
 11 12  1  0
 11 30  1  0
 12 13  2  0
 12 31  1  0
 13 14  1  0
 13 18  1  0
 14 15  1  6
 14 16  1  0
 14 17  1  0
 18 32  1  0
 19 20  1  0
 19 33  1  1
 19 34  1  0
 20 35  1  6
 20 36  1  0
M  END
$$$$
