ZINC000020781431
     RDKit          3D

 38 39  0  0  1  0  0  0  0  0999 V2000
   -0.0225    1.8097    0.0120 C   0  0  1  0  0  0  0  0  0  0  0  0
    0.0021   -0.0041    0.0020 S   0  0  1  0  0  0  0  0  0  0  0  0
    0.8448   -0.4970    1.0346 O   0  0  0  0  0  0  0  0  0  0  0  0
   -1.3093   -0.5195   -0.1821 O   0  0  0  0  0  0  0  0  0  0  0  0
    0.7961   -0.3989   -1.3965 N   0  0  0  0  0  0  0  0  0  0  0  0
    0.0550   -0.5829   -2.6518 C   0  0  1  0  0  0  0  0  0  0  0  0
    0.6756    0.3146   -3.7270 C   0  0  1  0  0  0  0  0  0  0  0  0
    2.1732    0.0171   -3.8319 C   0  0  1  0  0  0  0  0  0  0  0  0
    2.8511    0.3255   -2.4949 C   0  0  2  0  0  0  0  0  0  0  0  0
    2.6855    1.3712   -2.2357 H   0  0  0  0  0  0  0  0  0  0  0  0
    4.3309    0.0639   -2.6091 C   0  0  0  0  0  0  0  0  0  0  0  0
    4.7742   -1.0343   -2.3490 O   0  0  0  0  0  0  0  0  0  0  0  0
    5.2378    1.1413   -3.0364 C   0  0  0  0  0  0  0  0  0  0  0  0
    4.7310    2.4108   -3.3318 C   0  0  0  0  0  0  0  0  0  0  0  0
    5.5872    3.4150   -3.7316 C   0  0  0  0  0  0  0  0  0  0  0  0
    6.9448    3.1691   -3.8412 C   0  0  0  0  0  0  0  0  0  0  0  0
    7.8735    4.2723   -4.2788 C   0  0  1  0  0  0  0  0  0  0  0  0
    8.3275    4.9725   -3.1559 F   0  0  0  0  0  0  0  0  0  0  0  0
    8.9655    3.7208   -4.9575 F   0  0  0  0  0  0  0  0  0  0  0  0
    7.1896    5.1477   -5.1292 F   0  0  0  0  0  0  0  0  0  0  0  0
    7.4540    1.9153   -3.5506 C   0  0  0  0  0  0  0  0  0  0  0  0
    6.6116    0.9024   -3.1436 C   0  0  0  0  0  0  0  0  0  0  0  0
    2.2558   -0.5658   -1.4070 C   0  0  1  0  0  0  0  0  0  0  0  0
    1.0001    2.1870    0.0043 H   0  0  0  0  0  0  0  0  0  0  0  0
   -0.5497    2.1708   -0.8711 H   0  0  0  0  0  0  0  0  0  0  0  0
   -0.5327    2.1613    0.9088 H   0  0  0  0  0  0  0  0  0  0  0  0
    0.1188   -1.6252   -2.9643 H   0  0  0  0  0  0  0  0  0  0  0  0
   -0.9890   -0.3070   -2.5035 H   0  0  0  0  0  0  0  0  0  0  0  0
    0.1974    0.1169   -4.6863 H   0  0  0  0  0  0  0  0  0  0  0  0
    0.5305    1.3604   -3.4562 H   0  0  0  0  0  0  0  0  0  0  0  0
    2.3181   -1.0347   -4.0784 H   0  0  0  0  0  0  0  0  0  0  0  0
    2.6127    0.6370   -4.6134 H   0  0  0  0  0  0  0  0  0  0  0  0
    3.6718    2.6041   -3.2474 H   0  0  0  0  0  0  0  0  0  0  0  0
    5.1974    4.3960   -3.9601 H   0  0  0  0  0  0  0  0  0  0  0  0
    8.5146    1.7311   -3.6386 H   0  0  0  0  0  0  0  0  0  0  0  0
    7.0104   -0.0754   -2.9172 H   0  0  0  0  0  0  0  0  0  0  0  0
    2.6644   -0.2814   -0.4374 H   0  0  0  0  0  0  0  0  0  0  0  0
    2.4970   -1.6081   -1.6160 H   0  0  0  0  0  0  0  0  0  0  0  0
  1  2  1  0
  1 24  1  6
  1 25  1  0
  1 26  1  0
  2  3  2  0
  2  4  2  0
  2  5  1  6
  5 23  1  0
  5  6  1  0
  6  7  1  0
  6 27  1  6
  6 28  1  0
  7  8  1  0
  7 29  1  6
  7 30  1  0
  8  9  1  0
  8 31  1  6
  8 32  1  0
  9 10  1  1
  9 11  1  0
  9 23  1  0
 11 12  2  0
 11 13  1  0
 13 22  2  0
 13 14  1  0
 14 15  2  0
 14 33  1  0
 15 16  1  0
 15 34  1  0
 16 17  1  0
 16 21  2  0
 17 18  1  1
 17 19  1  0
 17 20  1  0
 21 22  1  0
 21 35  1  0
 22 36  1  0
 23 37  1  1
 23 38  1  0
M  END
$$$$
