ZINC000028208088
     RDKit          3D

 49 49  0  0  1  0  0  0  0  0999 V2000
   -0.0187    1.5258    0.0104 C   0  0  1  0  0  0  0  0  0  0  0  0
    0.0021   -0.0041    0.0020 C   0  0  1  0  0  0  0  0  0  0  0  0
    0.7421   -0.5109    1.2415 C   0  0  2  0  0  0  0  0  0  0  0  0
    1.7350   -0.0630    1.2804 H   0  0  0  0  0  0  0  0  0  0  0  0
    0.8719   -2.0337    1.1708 C   0  0  1  0  0  0  0  0  0  0  0  0
   -0.0083   -0.1401    2.4439 N   0  0  0  0  0  0  0  0  0  0  0  0
    0.6303   -0.0111    3.6237 C   0  0  0  0  0  0  0  0  0  0  0  0
    1.8262   -0.2020    3.6901 O   0  0  0  0  0  0  0  0  0  0  0  0
   -0.1416    0.3704    4.8606 C   0  0  1  0  0  0  0  0  0  0  0  0
    0.7500    0.4430    5.9750 O   0  0  0  0  0  0  0  0  0  0  0  0
    0.2099    0.7777    7.1766 C   0  0  0  0  0  0  0  0  0  0  0  0
   -1.1504    1.0253    7.2818 C   0  0  0  0  0  0  0  0  0  0  0  0
   -1.6974    1.3650    8.5046 C   0  0  0  0  0  0  0  0  0  0  0  0
   -0.8899    1.4587    9.6227 C   0  0  0  0  0  0  0  0  0  0  0  0
   -1.5911    1.8921   11.1800 S   0  0  1  0  0  0  0  0  0  0  0  0
   -0.5346    2.4381   11.9578 O   0  0  0  0  0  0  0  0  0  0  0  0
   -2.7922    2.5967   10.8971 O   0  0  0  0  0  0  0  0  0  0  0  0
   -2.0400    0.4828   11.9247 N   0  0  0  0  0  0  0  0  0  0  0  0
   -1.0926   -0.2211   12.7926 C   0  0  1  0  0  0  0  0  0  0  0  0
   -1.3270    0.1942   14.2463 C   0  0  1  0  0  0  0  0  0  0  0  0
   -3.3846   -0.0601   11.7158 C   0  0  1  0  0  0  0  0  0  0  0  0
   -3.3474   -1.0948   10.5893 C   0  0  1  0  0  0  0  0  0  0  0  0
    0.4671    1.2124    9.5213 C   0  0  0  0  0  0  0  0  0  0  0  0
    1.0184    0.8667    8.3020 C   0  0  0  0  0  0  0  0  0  0  0  0
    2.7219    0.5576    8.1748 Cl  0  0  0  0  0  0  0  0  0  0  0  0
    1.0039    1.9031    0.0027 H   0  0  0  0  0  0  0  0  0  0  0  0
   -0.5459    1.8868   -0.8726 H   0  0  0  0  0  0  0  0  0  0  0  0
   -0.5289    1.8773    0.9072 H   0  0  0  0  0  0  0  0  0  0  0  0
   -1.0205   -0.3814    0.0098 H   0  0  0  0  0  0  0  0  0  0  0  0
    0.5123   -0.3556   -0.8948 H   0  0  0  0  0  0  0  0  0  0  0  0
   -0.1210   -2.4817    1.1320 H   0  0  0  0  0  0  0  0  0  0  0  0
    1.4302   -2.3096    0.2763 H   0  0  0  0  0  0  0  0  0  0  0  0
    1.3991   -2.3948    2.0539 H   0  0  0  0  0  0  0  0  0  0  0  0
   -0.9647    0.0126    2.3909 H   0  0  0  0  0  0  0  0  0  0  0  0
   -0.6138    1.3411    4.7092 H   0  0  0  0  0  0  0  0  0  0  0  0
   -0.9077   -0.3798    5.0565 H   0  0  0  0  0  0  0  0  0  0  0  0
   -1.7819    0.9531    6.4087 H   0  0  0  0  0  0  0  0  0  0  0  0
   -2.7568    1.5579    8.5867 H   0  0  0  0  0  0  0  0  0  0  0  0
   -1.2394   -1.2967   12.6938 H   0  0  0  0  0  0  0  0  0  0  0  0
   -0.0739    0.0348   12.5013 H   0  0  0  0  0  0  0  0  0  0  0  0
   -1.1802    1.2697   14.3451 H   0  0  0  0  0  0  0  0  0  0  0  0
   -2.3457   -0.0617   14.5376 H   0  0  0  0  0  0  0  0  0  0  0  0
   -0.6221   -0.3295   14.8920 H   0  0  0  0  0  0  0  0  0  0  0  0
   -3.7315   -0.5346   12.6337 H   0  0  0  0  0  0  0  0  0  0  0  0
   -4.0645    0.7477   11.4449 H   0  0  0  0  0  0  0  0  0  0  0  0
   -3.0005   -0.6202    9.6714 H   0  0  0  0  0  0  0  0  0  0  0  0
   -2.6675   -1.9025   10.8601 H   0  0  0  0  0  0  0  0  0  0  0  0
   -4.3478   -1.4987   10.4338 H   0  0  0  0  0  0  0  0  0  0  0  0
    1.0958    1.2863   10.3963 H   0  0  0  0  0  0  0  0  0  0  0  0
  1  2  1  0
  1 26  1  6
  1 27  1  0
  1 28  1  0
  2  3  1  0
  2 29  1  1
  2 30  1  0
  3  4  1  1
  3  5  1  0
  3  6  1  0
  5 31  1  6
  5 32  1  0
  5 33  1  0
  6  7  1  0
  6 34  1  0
  7  8  2  0
  7  9  1  0
  9 10  1  0
  9 35  1  6
  9 36  1  0
 10 11  1  0
 11 24  2  0
 11 12  1  0
 12 13  2  0
 12 37  1  0
 13 14  1  0
 13 38  1  0
 14 15  1  0
 14 23  2  0
 15 16  2  0
 15 17  2  0
 15 18  1  1
 18 19  1  0
 18 21  1  0
 19 20  1  0
 19 39  1  1
 19 40  1  0
 20 41  1  6
 20 42  1  0
 20 43  1  0
 21 22  1  0
 21 44  1  1
 21 45  1  0
 22 46  1  6
 22 47  1  0
 22 48  1  0
 23 24  1  0
 23 49  1  0
 24 25  1  0
M  END
$$$$
