ZINC000015386088
     RDKit          3D

 47 49  0  0  1  0  0  0  0  0999 V2000
   -0.0187    1.5258    0.0104 C   0  0  1  0  0  0  0  0  0  0  0  0
    0.0021   -0.0041    0.0020 C   0  0  1  0  0  0  0  0  0  0  0  0
   -0.8825   -0.4839   -0.4168 H   0  0  0  0  0  0  0  0  0  0  0  0
    1.3509   -0.6911   -0.2209 C   0  0  1  0  0  0  0  0  0  0  0  0
    0.7031   -0.7075    1.1659 C   0  0  2  0  0  0  0  0  0  0  0  0
    1.1499   -0.0804    1.9375 H   0  0  0  0  0  0  0  0  0  0  0  0
    0.1187   -2.0111    1.6455 C   0  0  0  0  0  0  0  0  0  0  0  0
   -0.8714   -2.4646    1.1117 O   0  0  0  0  0  0  0  0  0  0  0  0
    0.6962   -2.6730    2.6677 N   0  0  0  0  0  0  0  0  0  0  0  0
    1.8927   -2.1323    3.3280 C   0  0  1  0  0  0  0  0  0  0  0  0
    1.6122   -2.0154    4.8313 C   0  0  1  0  0  0  0  0  0  0  0  0
    1.0565   -3.2905    5.3059 N   0  0  0  0  0  0  0  0  0  0  0  0
    1.7655   -4.1032    6.5625 S   0  0  1  0  0  0  0  0  0  0  0  0
    1.3881   -5.4660    6.4228 O   0  0  0  0  0  0  0  0  0  0  0  0
    3.1188   -3.6720    6.6066 O   0  0  0  0  0  0  0  0  0  0  0  0
    1.0114   -3.5278    8.0474 C   0  0  0  0  0  0  0  0  0  0  0  0
    1.5412   -2.4393    8.7149 C   0  0  0  0  0  0  0  0  0  0  0  0
    0.9496   -1.9879    9.8798 C   0  0  0  0  0  0  0  0  0  0  0  0
    1.5275   -0.8016   10.6077 C   0  0  1  0  0  0  0  0  0  0  0  0
    0.9362    0.3725   10.1291 F   0  0  0  0  0  0  0  0  0  0  0  0
    1.2740   -0.9265   11.9779 F   0  0  0  0  0  0  0  0  0  0  0  0
    2.9087   -0.7496   10.3918 F   0  0  0  0  0  0  0  0  0  0  0  0
   -0.1723   -2.6244   10.3768 C   0  0  0  0  0  0  0  0  0  0  0  0
   -0.7024   -3.7126    9.7091 C   0  0  0  0  0  0  0  0  0  0  0  0
   -1.9252   -4.4067   10.2512 C   0  0  1  0  0  0  0  0  0  0  0  0
   -2.3375   -3.7734   11.4285 F   0  0  0  0  0  0  0  0  0  0  0  0
   -2.9536   -4.3467    9.3046 F   0  0  0  0  0  0  0  0  0  0  0  0
   -1.6197   -5.7445   10.5237 F   0  0  0  0  0  0  0  0  0  0  0  0
   -0.1133   -4.1613    8.5419 C   0  0  0  0  0  0  0  0  0  0  0  0
   -0.1400   -3.8311    4.6456 C   0  0  1  0  0  0  0  0  0  0  0  0
    0.1372   -3.9453    3.1459 C   0  0  1  0  0  0  0  0  0  0  0  0
    1.0039    1.9031    0.0027 H   0  0  0  0  0  0  0  0  0  0  0  0
   -0.5459    1.8868   -0.8726 H   0  0  0  0  0  0  0  0  0  0  0  0
   -0.5289    1.8773    0.9072 H   0  0  0  0  0  0  0  0  0  0  0  0
    1.3536   -1.6231   -0.7861 H   0  0  0  0  0  0  0  0  0  0  0  0
    2.2234   -0.0532   -0.3616 H   0  0  0  0  0  0  0  0  0  0  0  0
    2.7357   -2.8036    3.1643 H   0  0  0  0  0  0  0  0  0  0  0  0
    2.1217   -1.1475    2.9209 H   0  0  0  0  0  0  0  0  0  0  0  0
    2.5404   -1.8011    5.3610 H   0  0  0  0  0  0  0  0  0  0  0  0
    0.8939   -1.2149    5.0082 H   0  0  0  0  0  0  0  0  0  0  0  0
    2.4176   -1.9419    8.3263 H   0  0  0  0  0  0  0  0  0  0  0  0
   -0.6345   -2.2717   11.2870 H   0  0  0  0  0  0  0  0  0  0  0  0
   -0.5274   -5.0115    8.0202 H   0  0  0  0  0  0  0  0  0  0  0  0
   -0.3689   -4.8160    5.0527 H   0  0  0  0  0  0  0  0  0  0  0  0
   -0.9830   -3.1599    4.8093 H   0  0  0  0  0  0  0  0  0  0  0  0
   -0.7917   -4.1596    2.6175 H   0  0  0  0  0  0  0  0  0  0  0  0
    0.8559   -4.7449    2.9666 H   0  0  0  0  0  0  0  0  0  0  0  0
  1  2  1  0
  1 32  1  6
  1 33  1  0
  1 34  1  0
  2  3  1  6
  2  5  1  0
  2  4  1  0
  4  5  1  0
  4 35  1  6
  4 36  1  0
  5  6  1  1
  5  7  1  0
  7  8  2  0
  7  9  1  0
  9 31  1  0
  9 10  1  0
 10 11  1  0
 10 37  1  1
 10 38  1  0
 11 12  1  0
 11 39  1  1
 11 40  1  0
 13 12  1  6
 12 30  1  0
 13 14  2  0
 13 15  2  0
 13 16  1  0
 16 29  2  0
 16 17  1  0
 17 18  2  0
 17 41  1  0
 18 19  1  0
 18 23  1  0
 19 20  1  6
 19 21  1  0
 19 22  1  0
 23 24  2  0
 23 42  1  0
 24 25  1  0
 24 29  1  0
 25 26  1  1
 25 27  1  0
 25 28  1  0
 29 43  1  0
 30 31  1  0
 30 44  1  1
 30 45  1  0
 31 46  1  6
 31 47  1  0
M  END
$$$$
