ZINC000096415027
     RDKit          3D

 35 36  0  0  1  0  0  0  0  0999 V2000
    0.2896    1.4732   -0.2388 C   0  0  1  0  0  0  0  0  0  0  0  0
    0.1668   -0.0468   -0.1144 C   0  0  2  0  0  0  0  0  0  0  0  0
    0.6508   -0.5250   -0.9660 H   0  0  0  0  0  0  0  0  0  0  0  0
   -1.3134   -0.4434   -0.0721 C   0  0  1  0  0  0  0  0  0  0  0  0
   -1.4189   -1.8368    0.2297 O   0  0  0  0  0  0  0  0  0  0  0  0
   -0.8973   -2.1994    1.5104 C   0  0  1  0  0  0  0  0  0  0  0  0
    0.6042   -1.8927    1.5492 C   0  0  1  0  0  0  0  0  0  0  0  0
    0.8040   -0.4951    1.1339 N   0  0  0  0  0  0  0  0  0  0  0  0
    1.7176    0.5427    2.0453 S   0  0  1  0  0  0  0  0  0  0  0  0
    1.0696    1.8059    1.9856 O   0  0  0  0  0  0  0  0  0  0  0  0
    1.9945   -0.1319    3.2650 O   0  0  0  0  0  0  0  0  0  0  0  0
    3.2634    0.7370    1.2222 C   0  0  0  0  0  0  0  0  0  0  0  0
    3.6262    1.9669    0.7142 C   0  0  0  0  0  0  0  0  0  0  0  0
    4.8399    2.1213    0.0675 C   0  0  0  0  0  0  0  0  0  0  0  0
    5.6970    1.0447   -0.0747 C   0  0  0  0  0  0  0  0  0  0  0  0
    7.0165    1.2225   -0.7806 C   0  0  1  0  0  0  0  0  0  0  0  0
    7.1467    2.5514   -1.1982 F   0  0  0  0  0  0  0  0  0  0  0  0
    8.0603    0.9045    0.0949 F   0  0  0  0  0  0  0  0  0  0  0  0
    7.0675    0.3768   -1.8938 F   0  0  0  0  0  0  0  0  0  0  0  0
    5.3467   -0.1912    0.4286 C   0  0  0  0  0  0  0  0  0  0  0  0
    4.1265   -0.3526    1.0877 C   0  0  0  0  0  0  0  0  0  0  0  0
    3.7564   -1.6324    1.6126 C   0  0  0  0  0  0  0  0  0  0  0  0
    3.4628   -2.6477    2.0291 N   0  0  0  0  0  0  0  0  0  0  0  0
    1.3343    1.7636   -0.1272 H   0  0  0  0  0  0  0  0  0  0  0  0
   -0.0725    1.7881   -1.2174 H   0  0  0  0  0  0  0  0  0  0  0  0
   -0.3053    1.9507    0.5398 H   0  0  0  0  0  0  0  0  0  0  0  0
   -1.8235    0.1355    0.6977 H   0  0  0  0  0  0  0  0  0  0  0  0
   -1.7713   -0.2451   -1.0412 H   0  0  0  0  0  0  0  0  0  0  0  0
   -1.4060   -1.6268    2.2860 H   0  0  0  0  0  0  0  0  0  0  0  0
   -1.0559   -3.2644    1.6799 H   0  0  0  0  0  0  0  0  0  0  0  0
    0.9813   -2.0322    2.5623 H   0  0  0  0  0  0  0  0  0  0  0  0
    1.1324   -2.5573    0.8655 H   0  0  0  0  0  0  0  0  0  0  0  0
    2.9615    2.8114    0.8212 H   0  0  0  0  0  0  0  0  0  0  0  0
    5.1190    3.0866   -0.3284 H   0  0  0  0  0  0  0  0  0  0  0  0
    6.0166   -1.0309    0.3166 H   0  0  0  0  0  0  0  0  0  0  0  0
  1  2  1  0
  1 24  1  1
  1 25  1  0
  1 26  1  0
  2  3  1  6
  2  8  1  0
  2  4  1  0
  4  5  1  0
  4 27  1  1
  4 28  1  0
  5  6  1  0
  6  7  1  0
  6 29  1  1
  6 30  1  0
  7  8  1  0
  7 31  1  1
  7 32  1  0
  9  8  1  6
  9 10  2  0
  9 11  2  0
  9 12  1  0
 12 21  2  0
 12 13  1  0
 13 14  2  0
 13 33  1  0
 14 15  1  0
 14 34  1  0
 15 16  1  0
 15 20  2  0
 16 17  1  6
 16 18  1  0
 16 19  1  0
 20 21  1  0
 20 35  1  0
 21 22  1  0
 22 23  3  0
M  END
$$$$
