ZINC000070640072
     RDKit          3D

 34 35  0  0  1  0  0  0  0  0999 V2000
    0.0021   -0.0041    0.0020 O   0  0  0  0  0  0  0  0  0  0  0  0
   -0.0172    1.4168    0.0098 S   0  0  1  0  0  0  0  0  0  0  0  0
    1.1903    2.1659    0.0023 O   0  0  0  0  0  0  0  0  0  0  0  0
   -0.7587    1.8230   -1.4141 N   0  0  0  0  0  0  0  0  0  0  0  0
   -0.9388    3.2326   -1.7701 C   0  0  1  0  0  0  0  0  0  0  0  0
   -1.2919    3.3426   -3.2547 C   0  0  1  0  0  0  0  0  0  0  0  0
   -0.5290    2.8386   -3.8480 H   0  0  0  0  0  0  0  0  0  0  0  0
   -2.5607    2.7284   -3.4892 O   0  0  0  0  0  0  0  0  0  0  0  0
   -1.3566    4.7956   -3.6493 C   0  0  0  0  0  0  0  0  0  0  0  0
   -2.4826    5.5420   -3.3561 C   0  0  0  0  0  0  0  0  0  0  0  0
   -2.5419    6.8748   -3.7181 C   0  0  0  0  0  0  0  0  0  0  0  0
   -1.4751    7.4613   -4.3729 C   0  0  0  0  0  0  0  0  0  0  0  0
   -1.5400    8.9141   -4.7680 C   0  0  1  0  0  0  0  0  0  0  0  0
   -1.0340    9.7029   -3.7292 F   0  0  0  0  0  0  0  0  0  0  0  0
   -0.7768    9.1180   -5.9226 F   0  0  0  0  0  0  0  0  0  0  0  0
   -2.8694    9.2703   -5.0189 F   0  0  0  0  0  0  0  0  0  0  0  0
   -0.3486    6.7153   -4.6649 C   0  0  0  0  0  0  0  0  0  0  0  0
   -0.2877    5.3835   -4.2995 C   0  0  0  0  0  0  0  0  0  0  0  0
   -1.1394    2.0311    1.2958 C   0  0  1  0  0  0  0  0  0  0  0  0
   -1.8758    0.9934    2.1454 C   0  0  1  0  0  0  0  0  0  0  0  0
   -0.7326    1.8081    2.7538 C   0  0  1  0  0  0  0  0  0  0  0  0
   -1.0737    1.1276   -2.0125 H   0  0  0  0  0  0  0  0  0  0  0  0
   -1.7448    3.6582   -1.1723 H   0  0  0  0  0  0  0  0  0  0  0  0
   -0.0151    3.7775   -1.5750 H   0  0  0  0  0  0  0  0  0  0  0  0
   -3.2884    3.1269   -2.9925 H   0  0  0  0  0  0  0  0  0  0  0  0
   -3.3161    5.0837   -2.8446 H   0  0  0  0  0  0  0  0  0  0  0  0
   -3.4219    7.4577   -3.4897 H   0  0  0  0  0  0  0  0  0  0  0  0
    0.4851    7.1736   -5.1761 H   0  0  0  0  0  0  0  0  0  0  0  0
    0.5924    4.8006   -4.5276 H   0  0  0  0  0  0  0  0  0  0  0  0
   -1.6688    2.9533    1.0564 H   0  0  0  0  0  0  0  0  0  0  0  0
   -2.8901    1.2328    2.4650 H   0  0  0  0  0  0  0  0  0  0  0  0
   -1.6860   -0.0584    1.9316 H   0  0  0  0  0  0  0  0  0  0  0  0
    0.2093    1.2923    2.9403 H   0  0  0  0  0  0  0  0  0  0  0  0
   -0.9947    2.5835    3.4737 H   0  0  0  0  0  0  0  0  0  0  0  0
  1  2  2  0
  2  3  2  0
  2  4  1  6
  2 19  1  0
  4  5  1  0
  4 22  1  0
  5  6  1  0
  5 23  1  1
  5 24  1  0
  6  7  1  6
  6  8  1  0
  6  9  1  0
  8 25  1  0
  9 18  2  0
  9 10  1  0
 10 11  2  0
 10 26  1  0
 11 12  1  0
 11 27  1  0
 12 13  1  0
 12 17  2  0
 13 14  1  1
 13 15  1  0
 13 16  1  0
 17 18  1  0
 17 28  1  0
 18 29  1  0
 19 21  1  0
 19 20  1  0
 19 30  1  1
 20 21  1  0
 20 31  1  1
 20 32  1  0
 21 33  1  6
 21 34  1  0
M  END
$$$$
