ZINC000088059249
     RDKit          3D

 37 38  0  0  1  0  0  0  0  0999 V2000
   -0.0187    1.5258    0.0104 C   0  0  1  0  0  0  0  0  0  0  0  0
    0.0021   -0.0041    0.0020 C   0  0  2  0  0  0  0  0  0  0  0  0
    0.5122   -0.3560   -0.8947 H   0  0  0  0  0  0  0  0  0  0  0  0
   -1.4353   -0.5350    0.0142 C   0  0  1  0  0  0  0  0  0  0  0  0
   -1.3917   -1.9983    0.1568 N   0  0  0  0  0  0  0  0  0  0  0  0
   -2.0709   -2.7964   -0.6906 C   0  0  0  0  0  0  0  0  0  0  0  0
   -2.7293   -2.3100   -1.5854 O   0  0  0  0  0  0  0  0  0  0  0  0
   -2.0122   -4.2933   -0.5262 C   0  0  1  0  0  0  0  0  0  0  0  0
   -2.8513   -4.9490   -1.5924 C   0  0  0  0  0  0  0  0  0  0  0  0
   -4.1902   -5.2025   -1.3597 C   0  0  0  0  0  0  0  0  0  0  0  0
   -4.9599   -5.8040   -2.3377 C   0  0  0  0  0  0  0  0  0  0  0  0
   -4.3909   -6.1517   -3.5486 C   0  0  0  0  0  0  0  0  0  0  0  0
   -5.2300   -6.8079   -4.6147 C   0  0  1  0  0  0  0  0  0  0  0  0
   -5.7997   -5.8247   -5.4308 F   0  0  0  0  0  0  0  0  0  0  0  0
   -4.4245   -7.6486   -5.3904 F   0  0  0  0  0  0  0  0  0  0  0  0
   -6.2447   -7.5595   -4.0126 F   0  0  0  0  0  0  0  0  0  0  0  0
   -3.0524   -5.8969   -3.7819 C   0  0  0  0  0  0  0  0  0  0  0  0
   -2.2836   -5.2919   -2.8053 C   0  0  0  0  0  0  0  0  0  0  0  0
   -0.5868   -2.5674    1.2484 C   0  0  1  0  0  0  0  0  0  0  0  0
    0.8172   -1.9564    1.1876 C   0  0  1  0  0  0  0  0  0  0  0  0
    0.7114   -0.4912    1.1926 N   0  0  0  0  0  0  0  0  0  0  0  0
    1.0039    1.9031    0.0027 H   0  0  0  0  0  0  0  0  0  0  0  0
   -0.5459    1.8868   -0.8726 H   0  0  0  0  0  0  0  0  0  0  0  0
   -0.5289    1.8773    0.9072 H   0  0  0  0  0  0  0  0  0  0  0  0
   -1.9787   -0.1014    0.8537 H   0  0  0  0  0  0  0  0  0  0  0  0
   -1.9305   -0.2729   -0.9207 H   0  0  0  0  0  0  0  0  0  0  0  0
   -0.9793   -4.6288   -0.6192 H   0  0  0  0  0  0  0  0  0  0  0  0
   -2.3956   -4.5661    0.4570 H   0  0  0  0  0  0  0  0  0  0  0  0
   -4.6347   -4.9309   -0.4136 H   0  0  0  0  0  0  0  0  0  0  0  0
   -6.0057   -6.0027   -2.1556 H   0  0  0  0  0  0  0  0  0  0  0  0
   -2.6080   -6.1682   -4.7281 H   0  0  0  0  0  0  0  0  0  0  0  0
   -1.2379   -5.0929   -2.9875 H   0  0  0  0  0  0  0  0  0  0  0  0
   -1.0487   -2.3291    2.2065 H   0  0  0  0  0  0  0  0  0  0  0  0
   -0.5210   -3.6488    1.1294 H   0  0  0  0  0  0  0  0  0  0  0  0
    1.3935   -2.2824    2.0534 H   0  0  0  0  0  0  0  0  0  0  0  0
    1.3161   -2.2815    0.2746 H   0  0  0  0  0  0  0  0  0  0  0  0
    1.6216   -0.0632    1.2722 H   0  0  0  0  0  0  0  0  0  0  0  0
  1  2  1  0
  1 22  1  6
  1 23  1  0
  1 24  1  0
  2  3  1  6
  2 21  1  0
  2  4  1  0
  4  5  1  0
  4 25  1  1
  4 26  1  0
  5  6  1  0
  5 19  1  0
  6  7  2  0
  6  8  1  0
  8  9  1  0
  8 27  1  1
  8 28  1  0
  9 18  2  0
  9 10  1  0
 10 11  2  0
 10 29  1  0
 11 12  1  0
 11 30  1  0
 12 13  1  0
 12 17  2  0
 13 14  1  6
 13 15  1  0
 13 16  1  0
 17 18  1  0
 17 31  1  0
 18 32  1  0
 19 20  1  0
 19 33  1  1
 19 34  1  0
 20 21  1  0
 20 35  1  1
 20 36  1  0
 21 37  1  0
M  END
$$$$
