ZINC000013064213
     RDKit          3D

 71 75  0  0  1  0  0  0  0  0999 V2000
   -9.0402   -6.0417    4.2274 C   0  0  1  0  0  0  0  0  0  0  0  0
   -9.2609   -4.7557    3.6448 O   0  0  0  0  0  0  0  0  0  0  0  0
   -8.3028   -4.2872    2.8026 C   0  0  0  0  0  0  0  0  0  0  0  0
   -7.1761   -5.0521    2.5377 C   0  0  0  0  0  0  0  0  0  0  0  0
   -6.2038   -4.5739    1.6808 C   0  0  0  0  0  0  0  0  0  0  0  0
   -6.3526   -3.3339    1.0876 C   0  0  0  0  0  0  0  0  0  0  0  0
   -5.1103   -2.7265   -0.0044 S   0  0  1  0  0  0  0  0  0  0  0  0
   -5.1484   -1.3094    0.0930 O   0  0  0  0  0  0  0  0  0  0  0  0
   -3.9411   -3.4921    0.2525 O   0  0  0  0  0  0  0  0  0  0  0  0
   -5.5860   -3.1022   -1.5454 N   0  0  0  0  0  0  0  0  0  0  0  0
   -5.2904   -4.4250   -2.1013 C   0  0  1  0  0  0  0  0  0  0  0  0
   -6.4771   -5.3316   -1.8991 C   0  0  0  0  0  0  0  0  0  0  0  0
   -7.4719   -4.9139   -1.3452 O   0  0  0  0  0  0  0  0  0  0  0  0
   -6.4329   -6.6066   -2.3338 N   0  0  0  0  0  0  0  0  0  0  0  0
   -7.5866   -7.4879   -2.1372 C   0  0  2  0  0  0  0  0  0  0  0  0
   -8.5057   -6.9094   -2.2302 H   0  0  0  0  0  0  0  0  0  0  0  0
   -7.5175   -8.1151   -0.7434 C   0  0  1  0  0  0  0  0  0  0  0  0
   -7.5703   -8.5930   -3.1952 C   0  0  1  0  0  0  0  0  0  0  0  0
   -6.2801   -9.4050   -3.0647 C   0  0  1  0  0  0  0  0  0  0  0  0
   -6.2638  -10.5101   -4.1227 C   0  0  2  0  0  0  0  0  0  0  0  0
   -6.3329   -9.8828   -5.5165 C   0  0  1  0  0  0  0  0  0  0  0  0
   -7.6231   -9.0708   -5.6470 C   0  0  1  0  0  0  0  0  0  0  0  0
   -8.8279   -9.9912   -5.4417 C   0  0  1  0  0  0  0  0  0  0  0  0
   -8.7589  -10.6185   -4.0479 C   0  0  1  0  0  0  0  0  0  0  0  0
   -7.4687  -11.4305   -3.9174 C   0  0  1  0  0  0  0  0  0  0  0  0
   -8.7751   -9.5134   -2.9899 C   0  0  1  0  0  0  0  0  0  0  0  0
   -7.6394   -7.9657   -4.5890 C   0  0  1  0  0  0  0  0  0  0  0  0
   -6.3025   -2.1118   -2.3529 C   0  0  1  0  0  0  0  0  0  0  0  0
   -5.3245   -1.3823   -3.2373 C   0  0  0  0  0  0  0  0  0  0  0  0
   -4.7921   -0.1736   -2.8293 C   0  0  0  0  0  0  0  0  0  0  0  0
   -3.8950    0.4956   -3.6406 C   0  0  0  0  0  0  0  0  0  0  0  0
   -3.5299   -0.0441   -4.8598 C   0  0  0  0  0  0  0  0  0  0  0  0
   -4.0616   -1.2533   -5.2674 C   0  0  0  0  0  0  0  0  0  0  0  0
   -4.9555   -1.9245   -4.4542 C   0  0  0  0  0  0  0  0  0  0  0  0
   -7.4748   -2.5698    1.3496 C   0  0  0  0  0  0  0  0  0  0  0  0
   -8.4524   -3.0458    2.2017 C   0  0  0  0  0  0  0  0  0  0  0  0
   -9.8781   -6.2951    4.8769 H   0  0  0  0  0  0  0  0  0  0  0  0
   -8.9538   -6.7883    3.4379 H   0  0  0  0  0  0  0  0  0  0  0  0
   -8.1203   -6.0228    4.8118 H   0  0  0  0  0  0  0  0  0  0  0  0
   -7.0591   -6.0205    3.0013 H   0  0  0  0  0  0  0  0  0  0  0  0
   -5.3265   -5.1690    1.4743 H   0  0  0  0  0  0  0  0  0  0  0  0
   -5.0811   -4.3328   -3.1671 H   0  0  0  0  0  0  0  0  0  0  0  0
   -4.4214   -4.8458   -1.5955 H   0  0  0  0  0  0  0  0  0  0  0  0
   -5.6373   -6.9407   -2.7768 H   0  0  0  0  0  0  0  0  0  0  0  0
   -8.3759   -8.7709   -0.5971 H   0  0  0  0  0  0  0  0  0  0  0  0
   -6.5984   -8.6936   -0.6505 H   0  0  0  0  0  0  0  0  0  0  0  0
   -7.5291   -7.3278    0.0103 H   0  0  0  0  0  0  0  0  0  0  0  0
   -5.4218   -8.7492   -3.2110 H   0  0  0  0  0  0  0  0  0  0  0  0
   -6.2309   -9.8518   -2.0718 H   0  0  0  0  0  0  0  0  0  0  0  0
   -5.3447  -11.0885   -4.0298 H   0  0  0  0  0  0  0  0  0  0  0  0
   -5.4746   -9.2271   -5.6628 H   0  0  0  0  0  0  0  0  0  0  0  0
   -6.3213  -10.6701   -6.2703 H   0  0  0  0  0  0  0  0  0  0  0  0
   -7.6723   -8.6239   -6.6400 H   0  0  0  0  0  0  0  0  0  0  0  0
   -9.7471   -9.4127   -5.5346 H   0  0  0  0  0  0  0  0  0  0  0  0
   -8.8163  -10.7785   -6.1954 H   0  0  0  0  0  0  0  0  0  0  0  0
   -9.6172  -11.2742   -3.9016 H   0  0  0  0  0  0  0  0  0  0  0  0
   -7.4571  -12.2178   -4.6712 H   0  0  0  0  0  0  0  0  0  0  0  0
   -7.4195  -11.8774   -2.9245 H   0  0  0  0  0  0  0  0  0  0  0  0
   -8.7259   -9.9603   -1.9969 H   0  0  0  0  0  0  0  0  0  0  0  0
   -9.6943   -8.9349   -3.0828 H   0  0  0  0  0  0  0  0  0  0  0  0
   -8.5585   -7.3872   -4.6819 H   0  0  0  0  0  0  0  0  0  0  0  0
   -6.7810   -7.3100   -4.7353 H   0  0  0  0  0  0  0  0  0  0  0  0
   -7.0455   -2.6158   -2.9710 H   0  0  0  0  0  0  0  0  0  0  0  0
   -6.8001   -1.3986   -1.6957 H   0  0  0  0  0  0  0  0  0  0  0  0
   -5.0774    0.2481   -1.8768 H   0  0  0  0  0  0  0  0  0  0  0  0
   -3.4796    1.4403   -3.3221 H   0  0  0  0  0  0  0  0  0  0  0  0
   -2.8296    0.4791   -5.4939 H   0  0  0  0  0  0  0  0  0  0  0  0
   -3.7766   -1.6748   -6.2200 H   0  0  0  0  0  0  0  0  0  0  0  0
   -5.3709   -2.8692   -4.7726 H   0  0  0  0  0  0  0  0  0  0  0  0
   -7.5889   -1.6016    0.8848 H   0  0  0  0  0  0  0  0  0  0  0  0
   -9.3288   -2.4486    2.4060 H   0  0  0  0  0  0  0  0  0  0  0  0
  1  2  1  0
  1 37  1  1
  1 38  1  0
  1 39  1  0
  2  3  1  0
  3 36  2  0
  3  4  1  0
  4  5  2  0
  4 40  1  0
  5  6  1  0
  5 41  1  0
  6  7  1  0
  6 35  2  0
  7  8  2  0
  7  9  2  0
  7 10  1  6
 10 11  1  0
 10 28  1  0
 11 12  1  0
 11 42  1  6
 11 43  1  0
 12 13  2  0
 12 14  1  0
 14 15  1  0
 14 44  1  0
 15 16  1  1
 15 17  1  0
 18 15  1  1
 17 45  1  1
 17 46  1  0
 17 47  1  0
 18 26  1  0
 18 27  1  0
 18 19  1  0
 19 20  1  0
 19 48  1  6
 19 49  1  0
 20 25  1  0
 20 21  1  0
 20 50  1  6
 21 22  1  0
 21 51  1  6
 21 52  1  0
 22 23  1  0
 22 27  1  0
 22 53  1  6
 23 24  1  0
 23 54  1  1
 23 55  1  0
 24 25  1  0
 24 26  1  0
 24 56  1  1
 25 57  1  6
 25 58  1  0
 26 59  1  1
 26 60  1  0
 27 61  1  1
 27 62  1  0
 28 29  1  0
 28 63  1  6
 28 64  1  0
 29 34  2  0
 29 30  1  0
 30 31  2  0
 30 65  1  0
 31 32  1  0
 31 66  1  0
 32 33  2  0
 32 67  1  0
 33 34  1  0
 33 68  1  0
 34 69  1  0
 35 36  1  0
 35 70  1  0
 36 71  1  0
M  END
$$$$
