ZINC000408534418
     RDKit          3D

 62 63  0  0  1  0  0  0  0  0999 V2000
   -0.0187    1.5258    0.0104 C   0  0  1  0  0  0  0  0  0  0  0  0
    0.0021   -0.0041    0.0020 C   0  0  1  0  0  0  0  0  0  0  0  0
    0.7421   -0.5109    1.2415 C   0  0  1  0  0  0  0  0  0  0  0  0
    0.7628   -2.0407    1.2331 C   0  0  2  0  0  0  0  0  0  0  0  0
   -0.2567   -2.4175    1.1513 H   0  0  0  0  0  0  0  0  0  0  0  0
    1.3918   -2.5494    2.5318 C   0  0  1  0  0  0  0  0  0  0  0  0
    1.5508   -2.5122    0.0916 N   0  0  0  0  0  0  0  0  0  0  0  0
    1.3205   -3.7345   -0.4273 C   0  0  0  0  0  0  0  0  0  0  0  0
    0.4611   -4.4442    0.0507 O   0  0  0  0  0  0  0  0  0  0  0  0
    2.1311   -4.2195   -1.6016 C   0  0  1  0  0  0  0  0  0  0  0  0
    1.6924   -5.5665   -1.9748 N   0  0  0  0  0  0  0  0  0  0  0  0
    0.5477   -5.7417   -2.8721 C   0  0  1  0  0  0  0  0  0  0  0  0
    1.0199   -5.6520   -4.3247 C   0  0  1  0  0  0  0  0  0  0  0  0
   -0.1577   -5.8323   -5.2477 C   0  0  0  0  0  0  0  0  0  0  0  0
   -0.5113   -7.0975   -5.6779 C   0  0  0  0  0  0  0  0  0  0  0  0
   -1.5914   -7.2628   -6.5246 C   0  0  0  0  0  0  0  0  0  0  0  0
   -2.3182   -6.1630   -6.9407 C   0  0  0  0  0  0  0  0  0  0  0  0
   -1.9651   -4.8979   -6.5098 C   0  0  0  0  0  0  0  0  0  0  0  0
   -0.8875   -4.7330   -5.6597 C   0  0  0  0  0  0  0  0  0  0  0  0
    2.4905   -6.8911   -1.3824 S   0  0  1  0  0  0  0  0  0  0  0  0
    2.2389   -7.9519   -2.2938 O   0  0  0  0  0  0  0  0  0  0  0  0
    3.7986   -6.4524   -1.0423 O   0  0  0  0  0  0  0  0  0  0  0  0
    1.7066   -7.3386    0.1308 C   0  0  0  0  0  0  0  0  0  0  0  0
    2.1434   -6.7909    1.3226 C   0  0  0  0  0  0  0  0  0  0  0  0
    1.5301   -7.1399    2.5104 C   0  0  0  0  0  0  0  0  0  0  0  0
    0.4752   -8.0407    2.5065 C   0  0  0  0  0  0  0  0  0  0  0  0
   -0.1299   -8.3852    3.6735 O   0  0  0  0  0  0  0  0  0  0  0  0
    0.3717   -7.7812    4.8675 C   0  0  1  0  0  0  0  0  0  0  0  0
    0.0387   -8.5890    1.3090 C   0  0  0  0  0  0  0  0  0  0  0  0
   -1.1073   -9.5676    1.3010 C   0  0  1  0  0  0  0  0  0  0  0  0
    0.6518   -8.2329    0.1236 C   0  0  0  0  0  0  0  0  0  0  0  0
    1.0039    1.9031    0.0027 H   0  0  0  0  0  0  0  0  0  0  0  0
   -0.5459    1.8868   -0.8726 H   0  0  0  0  0  0  0  0  0  0  0  0
   -0.5289    1.8773    0.9072 H   0  0  0  0  0  0  0  0  0  0  0  0
   -1.0205   -0.3814    0.0098 H   0  0  0  0  0  0  0  0  0  0  0  0
    0.5123   -0.3556   -0.8948 H   0  0  0  0  0  0  0  0  0  0  0  0
    1.7647   -0.1336    1.2338 H   0  0  0  0  0  0  0  0  0  0  0  0
    0.2319   -0.1594    2.1383 H   0  0  0  0  0  0  0  0  0  0  0  0
    2.4113   -2.1727    2.6137 H   0  0  0  0  0  0  0  0  0  0  0  0
    0.8055   -2.1987    3.3812 H   0  0  0  0  0  0  0  0  0  0  0  0
    1.4065   -3.6393    2.5258 H   0  0  0  0  0  0  0  0  0  0  0  0
    2.2382   -1.9445   -0.2908 H   0  0  0  0  0  0  0  0  0  0  0  0
    1.9885   -3.5441   -2.4452 H   0  0  0  0  0  0  0  0  0  0  0  0
    3.1863   -4.2433   -1.3297 H   0  0  0  0  0  0  0  0  0  0  0  0
    0.0948   -6.7176   -2.6970 H   0  0  0  0  0  0  0  0  0  0  0  0
   -0.1875   -4.9602   -2.6801 H   0  0  0  0  0  0  0  0  0  0  0  0
    1.4728   -4.6761   -4.4999 H   0  0  0  0  0  0  0  0  0  0  0  0
    1.7550   -6.4335   -4.5167 H   0  0  0  0  0  0  0  0  0  0  0  0
    0.0565   -7.9567   -5.3527 H   0  0  0  0  0  0  0  0  0  0  0  0
   -1.8673   -8.2513   -6.8612 H   0  0  0  0  0  0  0  0  0  0  0  0
   -3.1616   -6.2922   -7.6028 H   0  0  0  0  0  0  0  0  0  0  0  0
   -2.5326   -4.0386   -6.8353 H   0  0  0  0  0  0  0  0  0  0  0  0
   -0.6117   -3.7446   -5.3231 H   0  0  0  0  0  0  0  0  0  0  0  0
    2.9649   -6.0899    1.3251 H   0  0  0  0  0  0  0  0  0  0  0  0
    1.8719   -6.7120    3.4413 H   0  0  0  0  0  0  0  0  0  0  0  0
   -0.1982   -8.1414    5.7240 H   0  0  0  0  0  0  0  0  0  0  0  0
    1.4221   -8.0435    4.9937 H   0  0  0  0  0  0  0  0  0  0  0  0
    0.2738   -6.6980    4.7955 H   0  0  0  0  0  0  0  0  0  0  0  0
   -2.0463   -9.0264    1.1849 H   0  0  0  0  0  0  0  0  0  0  0  0
   -0.9845  -10.2643    0.4718 H   0  0  0  0  0  0  0  0  0  0  0  0
   -1.1201  -10.1198    2.2407 H   0  0  0  0  0  0  0  0  0  0  0  0
    0.3121   -8.6591   -0.8088 H   0  0  0  0  0  0  0  0  0  0  0  0
  1  2  1  0
  1 32  1  6
  1 33  1  0
  1 34  1  0
  2  3  1  0
  2 35  1  1
  2 36  1  0
  3  4  1  0
  3 37  1  6
  3 38  1  0
  4  5  1  6
  4  6  1  0
  4  7  1  0
  6 39  1  1
  6 40  1  0
  6 41  1  0
  7  8  1  0
  7 42  1  0
  8  9  2  0
  8 10  1  0
 10 11  1  0
 10 43  1  6
 10 44  1  0
 11 12  1  0
 20 11  1  6
 12 13  1  0
 12 45  1  6
 12 46  1  0
 13 14  1  0
 13 47  1  1
 13 48  1  0
 14 19  2  0
 14 15  1  0
 15 16  2  0
 15 49  1  0
 16 17  1  0
 16 50  1  0
 17 18  2  0
 17 51  1  0
 18 19  1  0
 18 52  1  0
 19 53  1  0
 20 21  2  0
 20 22  2  0
 20 23  1  0
 23 31  2  0
 23 24  1  0
 24 25  2  0
 24 54  1  0
 25 26  1  0
 25 55  1  0
 26 27  1  0
 26 29  2  0
 27 28  1  0
 28 56  1  1
 28 57  1  0
 28 58  1  0
 29 30  1  0
 29 31  1  0
 30 59  1  6
 30 60  1  0
 30 61  1  0
 31 62  1  0
M  END
$$$$
