ZINC000032926715
     RDKit          3D

 46 47  0  0  1  0  0  0  0  0999 V2000
   -0.0187    1.5258    0.0104 C   0  0  1  0  0  0  0  0  0  0  0  0
    0.0021   -0.0041    0.0020 C   0  0  2  0  0  0  0  0  0  0  0  0
    0.5293   -0.3651    0.8851 H   0  0  0  0  0  0  0  0  0  0  0  0
    0.7074   -0.4901   -1.2379 C   0  0  0  0  0  0  0  0  0  0  0  0
    0.0664   -0.7818   -2.2252 O   0  0  0  0  0  0  0  0  0  0  0  0
    2.0506   -0.6005   -1.2495 N   0  0  0  0  0  0  0  0  0  0  0  0
    2.8398   -0.2564   -0.0584 C   0  0  1  0  0  0  0  0  0  0  0  0
    3.7097   -1.4621    0.3183 C   0  0  1  0  0  0  0  0  0  0  0  0
    4.4114   -1.9293   -0.8855 N   0  0  0  0  0  0  0  0  0  0  0  0
    6.0616   -2.0660   -0.8995 S   0  0  1  0  0  0  0  0  0  0  0  0
    6.4594   -1.9859   -2.2613 O   0  0  0  0  0  0  0  0  0  0  0  0
    6.5458   -1.1849    0.1048 O   0  0  0  0  0  0  0  0  0  0  0  0
    6.4544   -3.6973   -0.3615 C   0  0  0  0  0  0  0  0  0  0  0  0
    6.6442   -3.9546    0.9831 C   0  0  0  0  0  0  0  0  0  0  0  0
    6.9524   -5.2346    1.4052 C   0  0  0  0  0  0  0  0  0  0  0  0
    7.0702   -6.2570    0.4825 C   0  0  0  0  0  0  0  0  0  0  0  0
    6.8794   -5.9997   -0.8624 C   0  0  0  0  0  0  0  0  0  0  0  0
    7.0083   -7.1143   -1.8684 C   0  0  1  0  0  0  0  0  0  0  0  0
    7.3235   -8.3058   -1.2065 F   0  0  0  0  0  0  0  0  0  0  0  0
    5.7977   -7.2672   -2.5527 F   0  0  0  0  0  0  0  0  0  0  0  0
    8.0234   -6.8047   -2.7800 F   0  0  0  0  0  0  0  0  0  0  0  0
    6.5671   -4.7210   -1.2839 C   0  0  0  0  0  0  0  0  0  0  0  0
    3.6222   -2.2734   -2.0766 C   0  0  1  0  0  0  0  0  0  0  0  0
    2.7519   -1.0731   -2.4515 C   0  0  1  0  0  0  0  0  0  0  0  0
   -1.6997   -0.6320    0.0149 S   0  0  1  0  0  0  0  0  0  0  0  0
   -2.3897    0.1856    1.4799 C   0  0  1  0  0  0  0  0  0  0  0  0
   -2.3722   -0.1408   -1.1365 O   0  0  0  0  0  0  0  0  0  0  0  0
   -1.6638   -2.0324    0.2528 O   0  0  0  0  0  0  0  0  0  0  0  0
    1.0039    1.9031    0.0027 H   0  0  0  0  0  0  0  0  0  0  0  0
   -0.5459    1.8868   -0.8726 H   0  0  0  0  0  0  0  0  0  0  0  0
   -0.5289    1.8773    0.9072 H   0  0  0  0  0  0  0  0  0  0  0  0
    3.4770    0.6005   -0.2768 H   0  0  0  0  0  0  0  0  0  0  0  0
    2.1700   -0.0163    0.7674 H   0  0  0  0  0  0  0  0  0  0  0  0
    4.4372   -1.1664    1.0742 H   0  0  0  0  0  0  0  0  0  0  0  0
    3.0786   -2.2612    0.7072 H   0  0  0  0  0  0  0  0  0  0  0  0
    6.5521   -3.1558    1.7040 H   0  0  0  0  0  0  0  0  0  0  0  0
    7.1014   -5.4355    2.4558 H   0  0  0  0  0  0  0  0  0  0  0  0
    7.3116   -7.2567    0.8122 H   0  0  0  0  0  0  0  0  0  0  0  0
    6.4181   -4.5201   -2.3346 H   0  0  0  0  0  0  0  0  0  0  0  0
    4.2920   -2.5135   -2.9024 H   0  0  0  0  0  0  0  0  0  0  0  0
    2.9850   -3.1303   -1.8582 H   0  0  0  0  0  0  0  0  0  0  0  0
    2.0249   -1.3701   -3.2074 H   0  0  0  0  0  0  0  0  0  0  0  0
    3.3810   -0.2722   -2.8401 H   0  0  0  0  0  0  0  0  0  0  0  0
   -2.3337    1.2667    1.3528 H   0  0  0  0  0  0  0  0  0  0  0  0
   -3.4308   -0.1120    1.6055 H   0  0  0  0  0  0  0  0  0  0  0  0
   -1.8193   -0.1067    2.3615 H   0  0  0  0  0  0  0  0  0  0  0  0
  1  2  1  0
  1 29  1  6
  1 30  1  0
  1 31  1  0
  2  3  1  1
  2  4  1  0
 25  2  1  6
  4  5  2  0
  4  6  1  0
  6 24  1  0
  6  7  1  0
  7  8  1  0
  7 32  1  6
  7 33  1  0
  8  9  1  0
  8 34  1  1
  8 35  1  0
 10  9  1  6
  9 23  1  0
 10 11  2  0
 10 12  2  0
 10 13  1  0
 13 22  2  0
 13 14  1  0
 14 15  2  0
 14 36  1  0
 15 16  1  0
 15 37  1  0
 16 17  2  0
 16 38  1  0
 17 18  1  0
 17 22  1  0
 18 19  1  1
 18 20  1  0
 18 21  1  0
 22 39  1  0
 23 24  1  0
 23 40  1  6
 23 41  1  0
 24 42  1  6
 24 43  1  0
 25 26  1  0
 25 27  2  0
 25 28  2  0
 26 44  1  6
 26 45  1  0
 26 46  1  0
M  END
$$$$
