ZINC000028207223
     RDKit          3D

 47 48  0  0  0  0  0  0  0  0999 V2000
   -1.1906   -0.8907   -0.2831 C   0  0  1  0  0  0  0  0  0  0  0  0
    0.0067    0.0164    0.0077 C   0  0  1  0  0  0  0  0  0  0  0  0
    0.7345   -0.4878    1.2271 C   0  0  0  0  0  0  0  0  0  0  0  0
    0.3732   -0.0348    2.4827 C   0  0  0  0  0  0  0  0  0  0  0  0
    1.0383   -0.4950    3.6023 C   0  0  0  0  0  0  0  0  0  0  0  0
    2.0706   -1.4140    3.4661 C   0  0  0  0  0  0  0  0  0  0  0  0
    2.7461   -1.8825    4.5984 N   0  0  0  0  0  0  0  0  0  0  0  0
    2.0854   -2.0315    5.7636 C   0  0  0  0  0  0  0  0  0  0  0  0
    0.8868   -1.8516    5.8085 O   0  0  0  0  0  0  0  0  0  0  0  0
    2.8360   -2.4215    7.0108 C   0  0  1  0  0  0  0  0  0  0  0  0
    1.9233   -2.5154    8.1063 O   0  0  0  0  0  0  0  0  0  0  0  0
    2.4423   -2.8603    9.3140 C   0  0  0  0  0  0  0  0  0  0  0  0
    3.8031   -3.0977    9.4433 C   0  0  0  0  0  0  0  0  0  0  0  0
    4.3283   -3.4476   10.6721 C   0  0  0  0  0  0  0  0  0  0  0  0
    3.4990   -3.5617   11.7726 C   0  0  0  0  0  0  0  0  0  0  0  0
    4.1720   -4.0088   13.3384 S   0  0  1  0  0  0  0  0  0  0  0  0
    3.1045   -4.5729   14.0877 O   0  0  0  0  0  0  0  0  0  0  0  0
    5.3845   -4.7001   13.0714 O   0  0  0  0  0  0  0  0  0  0  0  0
    4.5940   -2.6053   14.1094 N   0  0  0  0  0  0  0  0  0  0  0  0
    3.6233   -1.9199   14.9663 C   0  0  1  0  0  0  0  0  0  0  0  0
    5.9379   -2.0490   13.9346 C   0  0  1  0  0  0  0  0  0  0  0  0
    2.1426   -3.3252   11.6465 C   0  0  0  0  0  0  0  0  0  0  0  0
    1.6132   -2.9699   10.4209 C   0  0  0  0  0  0  0  0  0  0  0  0
    2.4307   -1.8673    2.2038 C   0  0  0  0  0  0  0  0  0  0  0  0
    1.7584   -1.4068    1.0886 C   0  0  0  0  0  0  0  0  0  0  0  0
   -1.8667   -0.8852    0.5718 H   0  0  0  0  0  0  0  0  0  0  0  0
   -1.7170   -0.5260   -1.1651 H   0  0  0  0  0  0  0  0  0  0  0  0
   -0.8409   -1.9073   -0.4632 H   0  0  0  0  0  0  0  0  0  0  0  0
    0.6828    0.0109   -0.8472 H   0  0  0  0  0  0  0  0  0  0  0  0
   -0.3430    1.0330    0.1878 H   0  0  0  0  0  0  0  0  0  0  0  0
   -0.4296    0.6798    2.5880 H   0  0  0  0  0  0  0  0  0  0  0  0
    0.7562   -0.1403    4.5826 H   0  0  0  0  0  0  0  0  0  0  0  0
    3.6898   -2.1001    4.5446 H   0  0  0  0  0  0  0  0  0  0  0  0
    3.3196   -3.3862    6.8571 H   0  0  0  0  0  0  0  0  0  0  0  0
    3.5916   -1.6673    7.2310 H   0  0  0  0  0  0  0  0  0  0  0  0
    4.4511   -3.0093    8.5839 H   0  0  0  0  0  0  0  0  0  0  0  0
    5.3876   -3.6325   10.7732 H   0  0  0  0  0  0  0  0  0  0  0  0
    3.7123   -2.2928   15.9866 H   0  0  0  0  0  0  0  0  0  0  0  0
    3.8200   -0.8479   14.9528 H   0  0  0  0  0  0  0  0  0  0  0  0
    2.6154   -2.1091   14.5970 H   0  0  0  0  0  0  0  0  0  0  0  0
    6.5132   -2.6915   13.2679 H   0  0  0  0  0  0  0  0  0  0  0  0
    5.8647   -1.0507   13.5032 H   0  0  0  0  0  0  0  0  0  0  0  0
    6.4359   -1.9910   14.9024 H   0  0  0  0  0  0  0  0  0  0  0  0
    1.4970   -3.4147   12.5076 H   0  0  0  0  0  0  0  0  0  0  0  0
    0.5537   -2.7852   10.3229 H   0  0  0  0  0  0  0  0  0  0  0  0
    3.2330   -2.5819    2.0946 H   0  0  0  0  0  0  0  0  0  0  0  0
    2.0380   -1.7590    0.1066 H   0  0  0  0  0  0  0  0  0  0  0  0
  1  2  1  0
  1 26  1  1
  1 27  1  0
  1 28  1  0
  2  3  1  0
  2 29  1  6
  2 30  1  0
  3 25  2  0
  3  4  1  0
  4  5  2  0
  4 31  1  0
  5  6  1  0
  5 32  1  0
  6  7  1  0
  6 24  2  0
  7  8  1  0
  7 33  1  0
  8  9  2  0
  8 10  1  0
 10 11  1  0
 10 34  1  6
 10 35  1  0
 11 12  1  0
 12 23  2  0
 12 13  1  0
 13 14  2  0
 13 36  1  0
 14 15  1  0
 14 37  1  0
 15 16  1  0
 15 22  2  0
 16 17  2  0
 16 18  2  0
 16 19  1  1
 19 20  1  0
 19 21  1  0
 20 38  1  1
 20 39  1  0
 20 40  1  0
 21 41  1  6
 21 42  1  0
 21 43  1  0
 22 23  1  0
 22 44  1  0
 23 45  1  0
 24 25  1  0
 24 46  1  0
 25 47  1  0
M  END
$$$$
