ZINC000185955228
     RDKit          3D

 42 43  0  0  1  0  0  0  0  0999 V2000
    1.2028    1.9841   -0.1575 C   0  0  1  0  0  0  0  0  0  0  0  0
    1.3941    0.4705   -0.0427 C   0  0  1  0  0  0  0  0  0  0  0  0
    0.7840   -0.2054   -1.2436 C   0  0  0  0  0  0  0  0  0  0  0  0
    0.2512    0.4554   -2.1026 O   0  0  0  0  0  0  0  0  0  0  0  0
    0.8388   -1.7058   -1.3726 C   0  0  1  0  0  0  0  0  0  0  0  0
    1.1485   -2.1431   -0.4234 H   0  0  0  0  0  0  0  0  0  0  0  0
   -0.5450   -2.2392   -1.7565 C   0  0  1  0  0  0  0  0  0  0  0  0
   -0.4519   -3.7436   -2.0216 C   0  0  1  0  0  0  0  0  0  0  0  0
    0.5050   -3.9994   -3.1882 C   0  0  1  0  0  0  0  0  0  0  0  0
    1.9007   -3.4861   -2.8205 C   0  0  1  0  0  0  0  0  0  0  0  0
    1.7989   -2.0753   -2.4216 N   0  0  0  0  0  0  0  0  0  0  0  0
    2.7437   -0.9236   -3.1451 S   0  0  1  0  0  0  0  0  0  0  0  0
    2.9729    0.0804   -2.1660 O   0  0  0  0  0  0  0  0  0  0  0  0
    3.7922   -1.6206   -3.8038 O   0  0  0  0  0  0  0  0  0  0  0  0
    1.7738   -0.1728   -4.4101 C   0  0  0  0  0  0  0  0  0  0  0  0
    1.4025    1.1512   -4.3024 C   0  0  0  0  0  0  0  0  0  0  0  0
    0.6408    1.7424   -5.2950 C   0  0  0  0  0  0  0  0  0  0  0  0
    0.2461    1.0111   -6.4010 C   0  0  0  0  0  0  0  0  0  0  0  0
   -0.5833    1.6636   -7.4768 C   0  0  1  0  0  0  0  0  0  0  0  0
   -0.8236    2.9988   -7.1350 F   0  0  0  0  0  0  0  0  0  0  0  0
    0.1055    1.6104   -8.6933 F   0  0  0  0  0  0  0  0  0  0  0  0
   -1.8017    0.9874   -7.6008 F   0  0  0  0  0  0  0  0  0  0  0  0
    0.6105   -0.3141   -6.5216 C   0  0  0  0  0  0  0  0  0  0  0  0
    1.3842   -0.9152   -5.5269 C   0  0  0  0  0  0  0  0  0  0  0  0
    1.7661   -2.2902   -5.6454 C   0  0  0  0  0  0  0  0  0  0  0  0
    2.0691   -3.3811   -5.7394 N   0  0  0  0  0  0  0  0  0  0  0  0
    1.6900    2.3443   -1.0636 H   0  0  0  0  0  0  0  0  0  0  0  0
    0.1381    2.2135   -0.2016 H   0  0  0  0  0  0  0  0  0  0  0  0
    1.6440    2.4730    0.7111 H   0  0  0  0  0  0  0  0  0  0  0  0
    2.4587    0.2411    0.0014 H   0  0  0  0  0  0  0  0  0  0  0  0
    0.9069    0.1103    0.8634 H   0  0  0  0  0  0  0  0  0  0  0  0
   -1.2446   -2.0561   -0.9409 H   0  0  0  0  0  0  0  0  0  0  0  0
   -0.8936   -1.7321   -2.6562 H   0  0  0  0  0  0  0  0  0  0  0  0
   -0.0798   -4.2472   -1.1295 H   0  0  0  0  0  0  0  0  0  0  0  0
   -1.4401   -4.1301   -2.2710 H   0  0  0  0  0  0  0  0  0  0  0  0
    0.5528   -5.0692   -3.3916 H   0  0  0  0  0  0  0  0  0  0  0  0
    0.1465   -3.4758   -4.0744 H   0  0  0  0  0  0  0  0  0  0  0  0
    2.2981   -4.0704   -1.9906 H   0  0  0  0  0  0  0  0  0  0  0  0
    2.5618   -3.5754   -3.6826 H   0  0  0  0  0  0  0  0  0  0  0  0
    1.7066    1.7277   -3.4413 H   0  0  0  0  0  0  0  0  0  0  0  0
    0.3527    2.7795   -5.2056 H   0  0  0  0  0  0  0  0  0  0  0  0
    0.3014   -0.8840   -7.3853 H   0  0  0  0  0  0  0  0  0  0  0  0
  1  2  1  0
  1 27  1  6
  1 28  1  0
  1 29  1  0
  2  3  1  0
  2 30  1  1
  2 31  1  0
  3  4  2  0
  3  5  1  0
  5  6  1  1
  5 11  1  0
  5  7  1  0
  7  8  1  0
  7 32  1  1
  7 33  1  0
  8  9  1  0
  8 34  1  1
  8 35  1  0
  9 10  1  0
  9 36  1  6
  9 37  1  0
 10 11  1  0
 10 38  1  1
 10 39  1  0
 12 11  1  1
 12 13  2  0
 12 14  2  0
 12 15  1  0
 15 24  2  0
 15 16  1  0
 16 17  2  0
 16 40  1  0
 17 18  1  0
 17 41  1  0
 18 19  1  0
 18 23  2  0
 19 20  1  1
 19 21  1  0
 19 22  1  0
 23 24  1  0
 23 42  1  0
 24 25  1  0
 25 26  3  0
M  END
$$$$
