ZINC000408608234
     RDKit          3D

 66 68  0  0  1  0  0  0  0  0999 V2000
   -0.0173    1.4248    0.0099 C   0  0  1  0  0  0  0  0  0  0  0  0
    0.0021   -0.0041    0.0020 O   0  0  0  0  0  0  0  0  0  0  0  0
    0.6258   -0.6184    1.0415 C   0  0  0  0  0  0  0  0  0  0  0  0
    1.2022    0.1384    2.0513 C   0  0  0  0  0  0  0  0  0  0  0  0
    1.8353   -0.4884    3.1070 C   0  0  0  0  0  0  0  0  0  0  0  0
    1.8951   -1.8688    3.1577 C   0  0  0  0  0  0  0  0  0  0  0  0
    2.7038   -2.6653    4.5054 S   0  0  1  0  0  0  0  0  0  0  0  0
    3.0893   -3.9510    4.0389 O   0  0  0  0  0  0  0  0  0  0  0  0
    3.6254   -1.7219    5.0345 O   0  0  0  0  0  0  0  0  0  0  0  0
    1.5649   -2.9166    5.6811 N   0  0  0  0  0  0  0  0  0  0  0  0
    0.7891   -4.1592    5.6958 C   0  0  1  0  0  0  0  0  0  0  0  0
    1.4543   -5.1647    6.6378 C   0  0  1  0  0  0  0  0  0  0  0  0
    0.6562   -6.4429    6.6529 C   0  0  0  0  0  0  0  0  0  0  0  0
   -0.3682   -6.6073    7.5663 C   0  0  0  0  0  0  0  0  0  0  0  0
   -1.1003   -7.7798    7.5802 C   0  0  0  0  0  0  0  0  0  0  0  0
   -0.8082   -8.7877    6.6803 C   0  0  0  0  0  0  0  0  0  0  0  0
    0.2156   -8.6229    5.7663 C   0  0  0  0  0  0  0  0  0  0  0  0
    0.9449   -7.4487    5.7496 C   0  0  0  0  0  0  0  0  0  0  0  0
    1.3333   -1.8962    6.7066 C   0  0  1  0  0  0  0  0  0  0  0  0
    0.1851   -1.0146    6.2877 C   0  0  0  0  0  0  0  0  0  0  0  0
   -0.3837   -1.2185    5.2361 O   0  0  0  0  0  0  0  0  0  0  0  0
   -0.2096    0.0004    7.0816 N   0  0  0  0  0  0  0  0  0  0  0  0
   -1.3258    0.8575    6.6744 C   0  0  1  0  0  0  0  0  0  0  0  0
   -1.3111    0.9832    5.5917 H   0  0  0  0  0  0  0  0  0  0  0  0
   -2.6463    0.2092    7.0947 C   0  0  1  0  0  0  0  0  0  0  0  0
   -1.1915    2.2244    7.3484 C   0  0  1  0  0  0  0  0  0  0  0  0
    0.0666    2.9260    6.8326 C   0  0  1  0  0  0  0  0  0  0  0  0
    0.1989    4.2724    7.4965 C   0  0  0  0  0  0  0  0  0  0  0  0
   -0.3841    5.3864    6.9222 C   0  0  0  0  0  0  0  0  0  0  0  0
   -0.2627    6.6215    7.5311 C   0  0  0  0  0  0  0  0  0  0  0  0
    0.4413    6.7424    8.7146 C   0  0  0  0  0  0  0  0  0  0  0  0
    1.0235    5.6281    9.2894 C   0  0  0  0  0  0  0  0  0  0  0  0
    0.8985    4.3924    8.6827 C   0  0  0  0  0  0  0  0  0  0  0  0
    1.3210   -2.6254    2.1528 C   0  0  0  0  0  0  0  0  0  0  0  0
    0.6822   -2.0034    1.0976 C   0  0  0  0  0  0  0  0  0  0  0  0
    1.0053    1.8021    0.0021 H   0  0  0  0  0  0  0  0  0  0  0  0
   -0.5445    1.7859   -0.8732 H   0  0  0  0  0  0  0  0  0  0  0  0
   -0.5275    1.7763    0.9067 H   0  0  0  0  0  0  0  0  0  0  0  0
    1.1564    1.2167    2.0118 H   0  0  0  0  0  0  0  0  0  0  0  0
    2.2842    0.1003    3.8934 H   0  0  0  0  0  0  0  0  0  0  0  0
   -0.2232   -3.9514    6.0424 H   0  0  0  0  0  0  0  0  0  0  0  0
    0.7502   -4.5752    4.6891 H   0  0  0  0  0  0  0  0  0  0  0  0
    2.4666   -5.3725    6.2912 H   0  0  0  0  0  0  0  0  0  0  0  0
    1.4932   -4.7487    7.6446 H   0  0  0  0  0  0  0  0  0  0  0  0
   -0.5964   -5.8199    8.2694 H   0  0  0  0  0  0  0  0  0  0  0  0
   -1.9002   -7.9086    8.2943 H   0  0  0  0  0  0  0  0  0  0  0  0
   -1.3797   -9.7040    6.6916 H   0  0  0  0  0  0  0  0  0  0  0  0
    0.4441   -9.4105    5.0635 H   0  0  0  0  0  0  0  0  0  0  0  0
    1.7448   -7.3199    5.0355 H   0  0  0  0  0  0  0  0  0  0  0  0
    1.0931   -2.3804    7.6531 H   0  0  0  0  0  0  0  0  0  0  0  0
    2.2317   -1.2906    6.8259 H   0  0  0  0  0  0  0  0  0  0  0  0
    0.2453    0.1635    7.9226 H   0  0  0  0  0  0  0  0  0  0  0  0
   -2.6610    0.0835    8.1773 H   0  0  0  0  0  0  0  0  0  0  0  0
   -3.4768    0.8468    6.7917 H   0  0  0  0  0  0  0  0  0  0  0  0
   -2.7420   -0.7647    6.6145 H   0  0  0  0  0  0  0  0  0  0  0  0
   -2.0667    2.8314    7.1167 H   0  0  0  0  0  0  0  0  0  0  0  0
   -1.1168    2.0916    8.4277 H   0  0  0  0  0  0  0  0  0  0  0  0
    0.9419    2.3190    7.0643 H   0  0  0  0  0  0  0  0  0  0  0  0
   -0.0080    3.0588    5.7533 H   0  0  0  0  0  0  0  0  0  0  0  0
   -0.9341    5.2920    5.9975 H   0  0  0  0  0  0  0  0  0  0  0  0
   -0.7176    7.4920    7.0820 H   0  0  0  0  0  0  0  0  0  0  0  0
    0.5367    7.7074    9.1900 H   0  0  0  0  0  0  0  0  0  0  0  0
    1.5738    5.7227   10.2139 H   0  0  0  0  0  0  0  0  0  0  0  0
    1.3534    3.5218    9.1318 H   0  0  0  0  0  0  0  0  0  0  0  0
    1.3687   -3.7035    2.1948 H   0  0  0  0  0  0  0  0  0  0  0  0
    0.2339   -2.5948    0.3129 H   0  0  0  0  0  0  0  0  0  0  0  0
  1  2  1  0
  1 36  1  6
  1 37  1  0
  1 38  1  0
  2  3  1  0
  3 35  2  0
  3  4  1  0
  4  5  2  0
  4 39  1  0
  5  6  1  0
  5 40  1  0
  6  7  1  0
  6 34  2  0
  7  8  2  0
  7  9  2  0
  7 10  1  1
 10 11  1  0
 10 19  1  0
 11 12  1  0
 11 41  1  1
 11 42  1  0
 12 13  1  0
 12 43  1  6
 12 44  1  0
 13 18  2  0
 13 14  1  0
 14 15  2  0
 14 45  1  0
 15 16  1  0
 15 46  1  0
 16 17  2  0
 16 47  1  0
 17 18  1  0
 17 48  1  0
 18 49  1  0
 19 20  1  0
 19 50  1  1
 19 51  1  0
 20 21  2  0
 20 22  1  0
 22 23  1  0
 22 52  1  0
 23 24  1  6
 23 25  1  0
 23 26  1  0
 25 53  1  1
 25 54  1  0
 25 55  1  0
 26 27  1  0
 26 56  1  1
 26 57  1  0
 27 28  1  0
 27 58  1  6
 27 59  1  0
 28 33  2  0
 28 29  1  0
 29 30  2  0
 29 60  1  0
 30 31  1  0
 30 61  1  0
 31 32  2  0
 31 62  1  0
 32 33  1  0
 32 63  1  0
 33 64  1  0
 34 35  1  0
 34 65  1  0
 35 66  1  0
M  END
$$$$
