ZINC000012146325
     RDKit          3D

 48 50  0  0  1  0  0  0  0  0999 V2000
    0.0021   -0.0041    0.0020 O   0  0  0  0  0  0  0  0  0  0  0  0
   -0.0144    1.2086    0.0087 C   0  0  0  0  0  0  0  0  0  0  0  0
    1.1435    1.8983    0.0013 N   0  0  0  0  0  0  0  0  0  0  0  0
    2.4220    1.1832   -0.0147 C   0  0  1  0  0  0  0  0  0  0  0  0
    2.7920    0.8322   -1.4572 C   0  0  1  0  0  0  0  0  0  0  0  0
    4.1272    0.0853   -1.4740 C   0  0  1  0  0  0  0  0  0  0  0  0
    5.2163    0.9741   -0.8699 C   0  0  1  0  0  0  0  0  0  0  0  0
    4.8463    1.3250    0.5726 C   0  0  1  0  0  0  0  0  0  0  0  0
    3.5111    2.0719    0.5893 C   0  0  1  0  0  0  0  0  0  0  0  0
   -1.3296    1.9443    0.0189 C   0  0  2  0  0  0  0  0  0  0  0  0
   -1.4020    2.5869   -0.8586 H   0  0  0  0  0  0  0  0  0  0  0  0
   -1.4441    2.7723    1.2715 C   0  0  0  0  0  0  0  0  0  0  0  0
   -2.4757    2.3880    1.9704 C   0  0  0  0  0  0  0  0  0  0  0  0
   -3.1807    1.2547    1.2730 C   0  0  1  0  0  0  0  0  0  0  0  0
   -2.4409    0.9824    0.0279 N   0  0  0  0  0  0  0  0  0  0  0  0
   -2.7886   -0.1652   -1.1142 S   0  0  1  0  0  0  0  0  0  0  0  0
   -1.5719   -0.4324   -1.7979 O   0  0  0  0  0  0  0  0  0  0  0  0
   -3.5467   -1.1704   -0.4552 O   0  0  0  0  0  0  0  0  0  0  0  0
   -3.8674    0.5802   -2.2911 C   0  0  0  0  0  0  0  0  0  0  0  0
   -5.2362    0.5240   -2.1068 C   0  0  0  0  0  0  0  0  0  0  0  0
   -6.0826    1.1088   -3.0301 C   0  0  0  0  0  0  0  0  0  0  0  0
   -5.5600    1.7502   -4.1376 C   0  0  0  0  0  0  0  0  0  0  0  0
   -6.4827    2.3873   -5.1445 C   0  0  1  0  0  0  0  0  0  0  0  0
   -6.7245    3.7162   -4.7800 F   0  0  0  0  0  0  0  0  0  0  0  0
   -5.8878    2.3517   -6.4102 F   0  0  0  0  0  0  0  0  0  0  0  0
   -7.6925    1.6855   -5.1780 F   0  0  0  0  0  0  0  0  0  0  0  0
   -4.1911    1.8075   -4.3213 C   0  0  0  0  0  0  0  0  0  0  0  0
   -3.3447    1.2260   -3.3959 C   0  0  0  0  0  0  0  0  0  0  0  0
    1.1304    2.8682    0.0067 H   0  0  0  0  0  0  0  0  0  0  0  0
    2.3338    0.2679    0.5707 H   0  0  0  0  0  0  0  0  0  0  0  0
    2.0161    0.1990   -1.8876 H   0  0  0  0  0  0  0  0  0  0  0  0
    2.8802    1.7474   -2.0426 H   0  0  0  0  0  0  0  0  0  0  0  0
    4.0389   -0.8299   -0.8886 H   0  0  0  0  0  0  0  0  0  0  0  0
    4.3908   -0.1647   -2.5017 H   0  0  0  0  0  0  0  0  0  0  0  0
    6.1675    0.4420   -0.8819 H   0  0  0  0  0  0  0  0  0  0  0  0
    5.3046    1.8893   -1.4554 H   0  0  0  0  0  0  0  0  0  0  0  0
    4.7581    0.4098    1.1580 H   0  0  0  0  0  0  0  0  0  0  0  0
    5.6223    1.9582    1.0029 H   0  0  0  0  0  0  0  0  0  0  0  0
    3.5994    2.9871    0.0039 H   0  0  0  0  0  0  0  0  0  0  0  0
    3.2476    2.3219    1.6170 H   0  0  0  0  0  0  0  0  0  0  0  0
   -0.7698    3.5683    1.5506 H   0  0  0  0  0  0  0  0  0  0  0  0
   -2.7804    2.8199    2.9122 H   0  0  0  0  0  0  0  0  0  0  0  0
   -3.1783    0.3691    1.9085 H   0  0  0  0  0  0  0  0  0  0  0  0
   -4.2052    1.5433    1.0383 H   0  0  0  0  0  0  0  0  0  0  0  0
   -5.6445    0.0230   -1.2415 H   0  0  0  0  0  0  0  0  0  0  0  0
   -7.1520    1.0644   -2.8864 H   0  0  0  0  0  0  0  0  0  0  0  0
   -3.7829    2.3089   -5.1863 H   0  0  0  0  0  0  0  0  0  0  0  0
   -2.2752    1.2708   -3.5394 H   0  0  0  0  0  0  0  0  0  0  0  0
  1  2  2  0
  2  3  1  0
  2 10  1  0
  3  4  1  0
  3 29  1  0
  4  9  1  0
  4  5  1  0
  4 30  1  1
  5  6  1  0
  5 31  1  6
  5 32  1  0
  6  7  1  0
  6 33  1  1
  6 34  1  0
  7  8  1  0
  7 35  1  1
  7 36  1  0
  8  9  1  0
  8 37  1  1
  8 38  1  0
  9 39  1  6
  9 40  1  0
 10 11  1  6
 10 15  1  0
 10 12  1  0
 12 13  2  0
 12 41  1  0
 13 14  1  0
 13 42  1  0
 14 15  1  0
 14 43  1  1
 14 44  1  0
 16 15  1  1
 16 17  2  0
 16 18  2  0
 16 19  1  0
 19 28  2  0
 19 20  1  0
 20 21  2  0
 20 45  1  0
 21 22  1  0
 21 46  1  0
 22 23  1  0
 22 27  2  0
 23 24  1  1
 23 25  1  0
 23 26  1  0
 27 28  1  0
 27 47  1  0
 28 48  1  0
M  END
$$$$
