ZINC000005512776
     RDKit          3D

 53 54  0  0  0  0  0  0  0  0999 V2000
   -0.0316    1.5408   -0.0377 C   0  0  1  0  0  0  0  0  0  0  0  0
   -0.0084    0.0110   -0.0502 C   0  0  1  0  0  0  0  0  0  0  0  0
   -1.3819   -0.4984   -0.0307 N   0  0  0  0  0  0  0  0  0  0  0  0
   -2.1287   -0.6394   -1.2832 C   0  0  1  0  0  0  0  0  0  0  0  0
   -1.7941   -1.9862   -1.9276 C   0  0  1  0  0  0  0  0  0  0  0  0
   -2.0903   -0.9148    1.4070 S   0  0  1  0  0  0  0  0  0  0  0  0
   -3.1185   -1.8442    1.0934 O   0  0  0  0  0  0  0  0  0  0  0  0
   -1.0300   -1.2035    2.3080 O   0  0  0  0  0  0  0  0  0  0  0  0
   -2.8936    0.5248    2.0289 C   0  0  0  0  0  0  0  0  0  0  0  0
   -2.2050    1.3982    2.8499 C   0  0  0  0  0  0  0  0  0  0  0  0
   -2.8302    2.5297    3.3411 C   0  0  0  0  0  0  0  0  0  0  0  0
   -4.1498    2.7907    3.0109 C   0  0  0  0  0  0  0  0  0  0  0  0
   -4.7657    3.9031    3.4927 O   0  0  0  0  0  0  0  0  0  0  0  0
   -3.9918    4.7599    4.3347 C   0  0  1  0  0  0  0  0  0  0  0  0
   -4.8444    1.9108    2.1834 C   0  0  0  0  0  0  0  0  0  0  0  0
   -6.1794    2.1699    1.8456 N   0  0  0  0  0  0  0  0  0  0  0  0
   -6.9938    1.1562    1.4911 C   0  0  0  0  0  0  0  0  0  0  0  0
   -6.6016    0.0105    1.5607 O   0  0  0  0  0  0  0  0  0  0  0  0
   -8.3916    1.4462    1.0083 C   0  0  1  0  0  0  0  0  0  0  0  0
   -9.0986    0.1312    0.6736 C   0  0  1  0  0  0  0  0  0  0  0  0
   -9.4061   -0.6634    1.9671 C   0  0  1  0  0  0  0  0  0  0  0  0
  -10.5863   -1.5704    1.5387 C   0  0  1  0  0  0  0  0  0  0  0  0
  -11.4326   -0.6761    0.6093 C   0  0  1  0  0  0  0  0  0  0  0  0
  -10.4868    0.4058    0.0593 C   0  0  1  0  0  0  0  0  0  0  0  0
   -4.2091    0.7810    1.6901 C   0  0  0  0  0  0  0  0  0  0  0  0
    0.9902    1.9198   -0.0521 H   0  0  0  0  0  0  0  0  0  0  0  0
   -0.5661    1.9033   -0.9158 H   0  0  0  0  0  0  0  0  0  0  0  0
   -0.5356    1.8891    0.8639 H   0  0  0  0  0  0  0  0  0  0  0  0
    0.4955   -0.3373   -0.9517 H   0  0  0  0  0  0  0  0  0  0  0  0
    0.5260   -0.3515    0.8279 H   0  0  0  0  0  0  0  0  0  0  0  0
   -3.1977   -0.5912   -1.0762 H   0  0  0  0  0  0  0  0  0  0  0  0
   -1.8535    0.1670   -1.9630 H   0  0  0  0  0  0  0  0  0  0  0  0
   -0.7251   -2.0343   -2.1346 H   0  0  0  0  0  0  0  0  0  0  0  0
   -2.0693   -2.7925   -1.2478 H   0  0  0  0  0  0  0  0  0  0  0  0
   -2.3498   -2.0911   -2.8595 H   0  0  0  0  0  0  0  0  0  0  0  0
   -1.1762    1.1961    3.1088 H   0  0  0  0  0  0  0  0  0  0  0  0
   -2.2895    3.2098    3.9826 H   0  0  0  0  0  0  0  0  0  0  0  0
   -3.6613    4.2047    5.2125 H   0  0  0  0  0  0  0  0  0  0  0  0
   -3.1228    5.1212    3.7849 H   0  0  0  0  0  0  0  0  0  0  0  0
   -4.6011    5.6073    4.6489 H   0  0  0  0  0  0  0  0  0  0  0  0
   -6.5174    3.0788    1.8668 H   0  0  0  0  0  0  0  0  0  0  0  0
   -8.9449    1.9677    1.7893 H   0  0  0  0  0  0  0  0  0  0  0  0
   -8.3456    2.0711    0.1164 H   0  0  0  0  0  0  0  0  0  0  0  0
   -8.4912   -0.4649   -0.0074 H   0  0  0  0  0  0  0  0  0  0  0  0
   -8.5464   -1.2633    2.2655 H   0  0  0  0  0  0  0  0  0  0  0  0
   -9.7073    0.0085    2.7708 H   0  0  0  0  0  0  0  0  0  0  0  0
  -10.2199   -2.4433    0.9984 H   0  0  0  0  0  0  0  0  0  0  0  0
  -11.1682   -1.8754    2.4084 H   0  0  0  0  0  0  0  0  0  0  0  0
  -11.8390   -1.2686   -0.2104 H   0  0  0  0  0  0  0  0  0  0  0  0
  -12.2424   -0.2127    1.1729 H   0  0  0  0  0  0  0  0  0  0  0  0
  -10.8375    1.3943    0.3560 H   0  0  0  0  0  0  0  0  0  0  0  0
  -10.4341    0.3384   -1.0274 H   0  0  0  0  0  0  0  0  0  0  0  0
   -4.7445    0.0972    1.0482 H   0  0  0  0  0  0  0  0  0  0  0  0
  1  2  1  0
  1 26  1  6
  1 27  1  0
  1 28  1  0
  2  3  1  0
  2 29  1  6
  2 30  1  0
  3  4  1  0
  6  3  1  6
  4  5  1  0
  4 31  1  1
  4 32  1  0
  5 33  1  6
  5 34  1  0
  5 35  1  0
  6  7  2  0
  6  8  2  0
  6  9  1  0
  9 25  2  0
  9 10  1  0
 10 11  2  0
 10 36  1  0
 11 12  1  0
 11 37  1  0
 12 13  1  0
 12 15  2  0
 13 14  1  0
 14 38  1  1
 14 39  1  0
 14 40  1  0
 15 16  1  0
 15 25  1  0
 16 17  1  0
 16 41  1  0
 17 18  2  0
 17 19  1  0
 19 20  1  0
 19 42  1  1
 19 43  1  0
 20 24  1  0
 20 21  1  0
 20 44  1  6
 21 22  1  0
 21 45  1  1
 21 46  1  0
 22 23  1  0
 22 47  1  6
 22 48  1  0
 23 24  1  0
 23 49  1  6
 23 50  1  0
 24 51  1  6
 24 52  1  0
 25 53  1  0
M  END
$$$$
