ZINC000016610261
     RDKit          3D

 52 53  0  0  1  0  0  0  0  0999 V2000
   -0.0187    1.5258    0.0104 C   0  0  1  0  0  0  0  0  0  0  0  0
    0.0021   -0.0041    0.0020 C   0  0  1  0  0  0  0  0  0  0  0  0
    0.7421   -0.5109    1.2415 C   0  0  1  0  0  0  0  0  0  0  0  0
    0.2852   -0.0874    2.1360 H   0  0  0  0  0  0  0  0  0  0  0  0
    0.6554   -2.0374    1.2986 C   0  0  1  0  0  0  0  0  0  0  0  0
    2.1476   -0.1038    1.1716 N   0  0  0  0  0  0  0  0  0  0  0  0
    2.8685    0.0265    2.3029 C   0  0  0  0  0  0  0  0  0  0  0  0
    2.3536   -0.1931    3.3788 O   0  0  0  0  0  0  0  0  0  0  0  0
    4.3144    0.4453    2.2310 C   0  0  1  0  0  0  0  0  0  0  0  0
    4.8709    0.5137    3.5845 N   0  0  0  0  0  0  0  0  0  0  0  0
    5.3986   -0.6954    4.2215 C   0  0  1  0  0  0  0  0  0  0  0  0
    6.8522   -0.9050    3.7926 C   0  0  1  0  0  0  0  0  0  0  0  0
    7.3950   -2.1488    4.4479 C   0  0  0  0  0  0  0  0  0  0  0  0
    8.0083   -2.0673    5.6840 C   0  0  0  0  0  0  0  0  0  0  0  0
    8.5062   -3.2082    6.2851 C   0  0  0  0  0  0  0  0  0  0  0  0
    8.3904   -4.4306    5.6502 C   0  0  0  0  0  0  0  0  0  0  0  0
    7.7763   -4.5123    4.4145 C   0  0  0  0  0  0  0  0  0  0  0  0
    7.2745   -3.3720    3.8154 C   0  0  0  0  0  0  0  0  0  0  0  0
    4.9034    1.9578    4.3943 S   0  0  1  0  0  0  0  0  0  0  0  0
    6.0318    1.9089    5.2566 O   0  0  0  0  0  0  0  0  0  0  0  0
    4.7165    2.9710    3.4157 O   0  0  0  0  0  0  0  0  0  0  0  0
    3.4830    2.0038    5.4358 C   0  0  0  0  0  0  0  0  0  0  0  0
    2.2942    2.5254    4.9607 C   0  0  0  0  0  0  0  0  0  0  0  0
    1.1798    2.5616    5.7778 C   0  0  0  0  0  0  0  0  0  0  0  0
    1.2540    2.0757    7.0698 C   0  0  0  0  0  0  0  0  0  0  0  0
    2.4425    1.5533    7.5446 C   0  0  0  0  0  0  0  0  0  0  0  0
    3.5557    1.5132    6.7261 C   0  0  0  0  0  0  0  0  0  0  0  0
    1.0039    1.9031    0.0027 H   0  0  0  0  0  0  0  0  0  0  0  0
   -0.5459    1.8868   -0.8726 H   0  0  0  0  0  0  0  0  0  0  0  0
   -0.5289    1.8773    0.9072 H   0  0  0  0  0  0  0  0  0  0  0  0
   -1.0205   -0.3814    0.0098 H   0  0  0  0  0  0  0  0  0  0  0  0
    0.5123   -0.3556   -0.8948 H   0  0  0  0  0  0  0  0  0  0  0  0
   -0.3904   -2.3402    1.3506 H   0  0  0  0  0  0  0  0  0  0  0  0
    1.1123   -2.4609    0.4042 H   0  0  0  0  0  0  0  0  0  0  0  0
    1.1826   -2.3985    2.1817 H   0  0  0  0  0  0  0  0  0  0  0  0
    2.5595    0.0718    0.3111 H   0  0  0  0  0  0  0  0  0  0  0  0
    4.8747   -0.2826    1.6441 H   0  0  0  0  0  0  0  0  0  0  0  0
    4.3858    1.4251    1.7588 H   0  0  0  0  0  0  0  0  0  0  0  0
    5.3517   -0.5853    5.3049 H   0  0  0  0  0  0  0  0  0  0  0  0
    4.8024   -1.5559    3.9176 H   0  0  0  0  0  0  0  0  0  0  0  0
    6.8991   -1.0151    2.7092 H   0  0  0  0  0  0  0  0  0  0  0  0
    7.4483   -0.0445    4.0965 H   0  0  0  0  0  0  0  0  0  0  0  0
    8.0988   -1.1122    6.1800 H   0  0  0  0  0  0  0  0  0  0  0  0
    8.9860   -3.1444    7.2506 H   0  0  0  0  0  0  0  0  0  0  0  0
    8.7800   -5.3219    6.1195 H   0  0  0  0  0  0  0  0  0  0  0  0
    7.6861   -5.4673    3.9183 H   0  0  0  0  0  0  0  0  0  0  0  0
    6.7947   -3.4358    2.8499 H   0  0  0  0  0  0  0  0  0  0  0  0
    2.2362    2.9050    3.9513 H   0  0  0  0  0  0  0  0  0  0  0  0
    0.2512    2.9698    5.4069 H   0  0  0  0  0  0  0  0  0  0  0  0
    0.3835    2.1046    7.7084 H   0  0  0  0  0  0  0  0  0  0  0  0
    2.5005    1.1740    8.5542 H   0  0  0  0  0  0  0  0  0  0  0  0
    4.4843    1.1051    7.0970 H   0  0  0  0  0  0  0  0  0  0  0  0
  1  2  1  0
  1 28  1  6
  1 29  1  0
  1 30  1  0
  2  3  1  0
  2 31  1  1
  2 32  1  0
  3  4  1  1
  3  5  1  0
  3  6  1  0
  5 33  1  1
  5 34  1  0
  5 35  1  0
  6  7  1  0
  6 36  1  0
  7  8  2  0
  7  9  1  0
  9 10  1  0
  9 37  1  6
  9 38  1  0
 10 11  1  0
 19 10  1  6
 11 12  1  0
 11 39  1  1
 11 40  1  0
 12 13  1  0
 12 41  1  6
 12 42  1  0
 13 18  2  0
 13 14  1  0
 14 15  2  0
 14 43  1  0
 15 16  1  0
 15 44  1  0
 16 17  2  0
 16 45  1  0
 17 18  1  0
 17 46  1  0
 18 47  1  0
 19 20  2  0
 19 21  2  0
 19 22  1  0
 22 27  2  0
 22 23  1  0
 23 24  2  0
 23 48  1  0
 24 25  1  0
 24 49  1  0
 25 26  2  0
 25 50  1  0
 26 27  1  0
 26 51  1  0
 27 52  1  0
M  END
$$$$
