ZINC000041129621
     RDKit          3D

 36 37  0  0  1  0  0  0  0  0999 V2000
   -0.0162    1.3436    0.0094 N   0  0  0  0  0  0  0  0  0  0  0  0
    0.0021   -0.0041    0.0020 C   0  0  0  0  0  0  0  0  0  0  0  0
    1.0605   -0.5961   -0.0113 O   0  0  0  0  0  0  0  0  0  0  0  0
   -1.2926   -0.7753    0.0102 C   0  0  2  0  0  0  0  0  0  0  0  0
   -1.9009   -0.5227   -0.8583 H   0  0  0  0  0  0  0  0  0  0  0  0
   -2.0761   -0.5327    1.3274 C   0  0  1  0  0  0  0  0  0  0  0  0
   -2.9169   -1.8188    1.4712 C   0  0  1  0  0  0  0  0  0  0  0  0
   -2.2512   -2.8660    0.6827 N   0  0  0  0  0  0  0  0  0  0  0  0
   -2.6858   -4.1331    0.5341 C   0  0  0  0  0  0  0  0  0  0  0  0
   -2.0534   -4.9155   -0.1433 O   0  0  0  0  0  0  0  0  0  0  0  0
   -3.9575   -4.5776    1.2095 C   0  0  1  0  0  0  0  0  0  0  0  0
   -4.2182   -6.0262    0.8860 C   0  0  0  0  0  0  0  0  0  0  0  0
   -4.9604   -6.3624   -0.2307 C   0  0  0  0  0  0  0  0  0  0  0  0
   -5.1996   -7.6911   -0.5274 C   0  0  0  0  0  0  0  0  0  0  0  0
   -4.6961   -8.6838    0.2924 C   0  0  0  0  0  0  0  0  0  0  0  0
   -4.9572  -10.1324   -0.0308 C   0  0  1  0  0  0  0  0  0  0  0  0
   -3.9353  -10.6182   -0.8536 F   0  0  0  0  0  0  0  0  0  0  0  0
   -4.9946  -10.8752    1.1541 F   0  0  0  0  0  0  0  0  0  0  0  0
   -6.1840  -10.2487   -0.6930 F   0  0  0  0  0  0  0  0  0  0  0  0
   -3.9527   -8.3477    1.4083 C   0  0  0  0  0  0  0  0  0  0  0  0
   -3.7103   -7.0191    1.7029 C   0  0  0  0  0  0  0  0  0  0  0  0
   -1.0301   -2.3003    0.0798 C   0  0  1  0  0  0  0  0  0  0  0  0
    0.8172    1.8399    0.0041 H   0  0  0  0  0  0  0  0  0  0  0  0
   -0.8627    1.8171    0.0160 H   0  0  0  0  0  0  0  0  0  0  0  0
   -1.3916   -0.4234    2.1686 H   0  0  0  0  0  0  0  0  0  0  0  0
   -2.7208    0.3415    1.2372 H   0  0  0  0  0  0  0  0  0  0  0  0
   -2.9630   -2.1163    2.5187 H   0  0  0  0  0  0  0  0  0  0  0  0
   -3.9228   -1.6488    1.0873 H   0  0  0  0  0  0  0  0  0  0  0  0
   -3.8567   -4.4587    2.2883 H   0  0  0  0  0  0  0  0  0  0  0  0
   -4.7896   -3.9704    0.8532 H   0  0  0  0  0  0  0  0  0  0  0  0
   -5.3538   -5.5868   -0.8711 H   0  0  0  0  0  0  0  0  0  0  0  0
   -5.7801   -7.9537   -1.3994 H   0  0  0  0  0  0  0  0  0  0  0  0
   -3.5590   -9.1233    2.0485 H   0  0  0  0  0  0  0  0  0  0  0  0
   -3.1295   -6.7565    2.5747 H   0  0  0  0  0  0  0  0  0  0  0  0
   -0.8778   -2.7061   -0.9204 H   0  0  0  0  0  0  0  0  0  0  0  0
   -0.1650   -2.5073    0.7098 H   0  0  0  0  0  0  0  0  0  0  0  0
  1  2  1  0
  1 23  1  0
  1 24  1  0
  2  3  2  0
  2  4  1  0
  4  5  1  6
  4 22  1  0
  4  6  1  0
  6  7  1  0
  6 25  1  1
  6 26  1  0
  7  8  1  0
  7 27  1  1
  7 28  1  0
  8  9  1  0
  8 22  1  0
  9 10  2  0
  9 11  1  0
 11 12  1  0
 11 29  1  1
 11 30  1  0
 12 21  2  0
 12 13  1  0
 13 14  2  0
 13 31  1  0
 14 15  1  0
 14 32  1  0
 15 16  1  0
 15 20  2  0
 16 17  1  6
 16 18  1  0
 16 19  1  0
 20 21  1  0
 20 33  1  0
 21 34  1  0
 22 35  1  6
 22 36  1  0
M  END
$$$$
