ZINC000039985327
     RDKit          3D

 44 45  0  0  1  0  0  0  0  0999 V2000
   -0.0187    1.5258    0.0104 C   0  0  1  0  0  0  0  0  0  0  0  0
    0.0021   -0.0041    0.0020 C   0  0  1  0  0  0  0  0  0  0  0  0
    0.6878   -0.4765   -1.2033 N   0  0  0  0  0  0  0  0  0  0  0  0
    2.1478   -0.5966   -1.2159 C   0  0  1  0  0  0  0  0  0  0  0  0
    2.5471   -1.9310   -0.6407 C   0  0  0  0  0  0  0  0  0  0  0  0
    1.6959   -2.7055   -0.2578 O   0  0  0  0  0  0  0  0  0  0  0  0
    3.8501   -2.2637   -0.5516 N   0  0  0  0  0  0  0  0  0  0  0  0
    4.2383   -3.5610    0.0076 C   0  0  1  0  0  0  0  0  0  0  0  0
    5.7631   -3.6864   -0.0056 C   0  0  2  0  0  0  0  0  0  0  0  0
    6.1398   -3.5100   -1.0131 H   0  0  0  0  0  0  0  0  0  0  0  0
    6.1768   -5.0960    0.4690 C   0  0  1  0  0  0  0  0  0  0  0  0
    7.4322   -4.7976    1.3331 C   0  0  1  0  0  0  0  0  0  0  0  0
    7.0504   -3.4251    1.9426 C   0  0  1  0  0  0  0  0  0  0  0  0
    6.3366   -2.7369    0.9007 O   0  0  0  0  0  0  0  0  0  0  0  0
   -0.1875   -0.8749   -2.5515 S   0  0  1  0  0  0  0  0  0  0  0  0
    0.6166   -1.7761   -3.3001 O   0  0  0  0  0  0  0  0  0  0  0  0
   -1.4970   -1.1925   -2.1004 O   0  0  0  0  0  0  0  0  0  0  0  0
   -0.3375    0.5853   -3.5262 C   0  0  0  0  0  0  0  0  0  0  0  0
   -1.4058    1.4405   -3.3298 C   0  0  0  0  0  0  0  0  0  0  0  0
   -1.5237    2.5862   -4.0938 C   0  0  0  0  0  0  0  0  0  0  0  0
   -0.5725    2.8772   -5.0551 C   0  0  0  0  0  0  0  0  0  0  0  0
   -0.7329    4.4449   -6.1002 Br  0  0  0  0  0  0  0  0  0  0  0  0
    0.4963    2.0212   -5.2512 C   0  0  0  0  0  0  0  0  0  0  0  0
    0.6161    0.8784   -4.4831 C   0  0  0  0  0  0  0  0  0  0  0  0
    1.0039    1.9031    0.0027 H   0  0  0  0  0  0  0  0  0  0  0  0
   -0.5459    1.8868   -0.8726 H   0  0  0  0  0  0  0  0  0  0  0  0
   -0.5289    1.8773    0.9072 H   0  0  0  0  0  0  0  0  0  0  0  0
    0.5293   -0.3651    0.8851 H   0  0  0  0  0  0  0  0  0  0  0  0
   -1.0205   -0.3814    0.0098 H   0  0  0  0  0  0  0  0  0  0  0  0
    2.5098   -0.5199   -2.2412 H   0  0  0  0  0  0  0  0  0  0  0  0
    2.5833    0.2026   -0.6162 H   0  0  0  0  0  0  0  0  0  0  0  0
    4.5309   -1.6443   -0.8578 H   0  0  0  0  0  0  0  0  0  0  0  0
    3.8763   -3.6376    1.0329 H   0  0  0  0  0  0  0  0  0  0  0  0
    3.8028   -4.3602   -0.5921 H   0  0  0  0  0  0  0  0  0  0  0  0
    5.3896   -5.5489    1.0718 H   0  0  0  0  0  0  0  0  0  0  0  0
    6.4317   -5.7315   -0.3791 H   0  0  0  0  0  0  0  0  0  0  0  0
    7.5619   -5.5503    2.1107 H   0  0  0  0  0  0  0  0  0  0  0  0
    8.3255   -4.7174    0.7137 H   0  0  0  0  0  0  0  0  0  0  0  0
    6.4098   -3.5630    2.8136 H   0  0  0  0  0  0  0  0  0  0  0  0
    7.9476   -2.8697    2.2159 H   0  0  0  0  0  0  0  0  0  0  0  0
   -2.1486    1.2130   -2.5795 H   0  0  0  0  0  0  0  0  0  0  0  0
   -2.3585    3.2541   -3.9405 H   0  0  0  0  0  0  0  0  0  0  0  0
    1.2392    2.2480   -6.0016 H   0  0  0  0  0  0  0  0  0  0  0  0
    1.4506    0.2100   -4.6362 H   0  0  0  0  0  0  0  0  0  0  0  0
  1  2  1  0
  1 25  1  6
  1 26  1  0
  1 27  1  0
  2  3  1  0
  2 28  1  1
  2 29  1  0
  3  4  1  0
 15  3  1  1
  4  5  1  0
  4 30  1  6
  4 31  1  0
  5  6  2  0
  5  7  1  0
  7  8  1  0
  7 32  1  0
  8  9  1  0
  8 33  1  1
  8 34  1  0
  9 10  1  6
  9 14  1  0
  9 11  1  0
 11 12  1  0
 11 35  1  1
 11 36  1  0
 12 13  1  0
 12 37  1  1
 12 38  1  0
 13 14  1  0
 13 39  1  1
 13 40  1  0
 15 16  2  0
 15 17  2  0
 15 18  1  0
 18 24  2  0
 18 19  1  0
 19 20  2  0
 19 41  1  0
 20 21  1  0
 20 42  1  0
 21 22  1  0
 21 23  2  0
 23 24  1  0
 23 43  1  0
 24 44  1  0
M  END
$$$$
