ZINC000408614016
     RDKit          3D

 67 69  0  0  1  0  0  0  0  0999 V2000
   -9.0577   -6.1146    4.1573 C   0  0  1  0  0  0  0  0  0  0  0  0
   -9.2411   -4.7883    3.6578 O   0  0  0  0  0  0  0  0  0  0  0  0
   -8.2892   -4.3098    2.8125 C   0  0  0  0  0  0  0  0  0  0  0  0
   -7.2062   -5.1014    2.4672 C   0  0  0  0  0  0  0  0  0  0  0  0
   -6.2394   -4.6135    1.6072 C   0  0  0  0  0  0  0  0  0  0  0  0
   -6.3505   -3.3364    1.0908 C   0  0  0  0  0  0  0  0  0  0  0  0
   -5.1151   -2.7203   -0.0041 S   0  0  1  0  0  0  0  0  0  0  0  0
   -5.1614   -1.3035    0.0950 O   0  0  0  0  0  0  0  0  0  0  0  0
   -3.9405   -3.4791    0.2487 O   0  0  0  0  0  0  0  0  0  0  0  0
   -5.5928   -3.0973   -1.5442 N   0  0  0  0  0  0  0  0  0  0  0  0
   -5.3013   -4.4218   -2.0981 C   0  0  1  0  0  0  0  0  0  0  0  0
   -6.4905   -5.3247   -1.8936 C   0  0  0  0  0  0  0  0  0  0  0  0
   -7.4837   -4.9032   -1.3397 O   0  0  0  0  0  0  0  0  0  0  0  0
   -6.4502   -6.6005   -2.3262 N   0  0  0  0  0  0  0  0  0  0  0  0
   -7.6062   -7.4782   -2.1274 C   0  0  1  0  0  0  0  0  0  0  0  0
   -8.0872   -7.2365   -1.1796 H   0  0  0  0  0  0  0  0  0  0  0  0
   -8.6025   -7.2762   -3.2709 C   0  0  1  0  0  0  0  0  0  0  0  0
   -7.1422   -8.9359   -2.1068 C   0  0  1  0  0  0  0  0  0  0  0  0
   -6.2439   -9.1680   -0.8902 C   0  0  1  0  0  0  0  0  0  0  0  0
   -5.7868  -10.6039   -0.8699 C   0  0  0  0  0  0  0  0  0  0  0  0
   -6.5395  -11.5596   -0.2134 C   0  0  0  0  0  0  0  0  0  0  0  0
   -6.1203  -12.8767   -0.1947 C   0  0  0  0  0  0  0  0  0  0  0  0
   -4.9486  -13.2382   -0.8330 C   0  0  0  0  0  0  0  0  0  0  0  0
   -4.1963  -12.2827   -1.4902 C   0  0  0  0  0  0  0  0  0  0  0  0
   -4.6178  -10.9663   -1.5125 C   0  0  0  0  0  0  0  0  0  0  0  0
   -6.3071   -2.1062   -2.3528 C   0  0  1  0  0  0  0  0  0  0  0  0
   -5.3272   -1.3791   -3.2373 C   0  0  0  0  0  0  0  0  0  0  0  0
   -4.7917   -0.1718   -2.8293 C   0  0  0  0  0  0  0  0  0  0  0  0
   -3.8929    0.4951   -3.6406 C   0  0  0  0  0  0  0  0  0  0  0  0
   -3.5292   -0.0456   -4.8598 C   0  0  0  0  0  0  0  0  0  0  0  0
   -4.0640   -1.2534   -5.2674 C   0  0  0  0  0  0  0  0  0  0  0  0
   -4.9595   -1.9223   -4.4541 C   0  0  0  0  0  0  0  0  0  0  0  0
   -7.4294   -2.5411    1.4311 C   0  0  0  0  0  0  0  0  0  0  0  0
   -8.4041   -3.0256    2.2879 C   0  0  0  0  0  0  0  0  0  0  0  0
   -9.4657   -2.2448    2.6236 O   0  0  0  0  0  0  0  0  0  0  0  0
   -9.5125   -0.9344    2.0556 C   0  0  1  0  0  0  0  0  0  0  0  0
   -9.8855   -6.3716    4.8181 H   0  0  0  0  0  0  0  0  0  0  0  0
   -9.0272   -6.8159    3.3234 H   0  0  0  0  0  0  0  0  0  0  0  0
   -8.1205   -6.1678    4.7113 H   0  0  0  0  0  0  0  0  0  0  0  0
   -7.1166   -6.0995    2.8699 H   0  0  0  0  0  0  0  0  0  0  0  0
   -5.3955   -5.2317    1.3387 H   0  0  0  0  0  0  0  0  0  0  0  0
   -5.0924   -4.3319   -3.1641 H   0  0  0  0  0  0  0  0  0  0  0  0
   -4.4332   -4.8442   -1.5921 H   0  0  0  0  0  0  0  0  0  0  0  0
   -5.6558   -6.9376   -2.7692 H   0  0  0  0  0  0  0  0  0  0  0  0
   -9.4626   -7.9292   -3.1230 H   0  0  0  0  0  0  0  0  0  0  0  0
   -8.9331   -6.2377   -3.2856 H   0  0  0  0  0  0  0  0  0  0  0  0
   -8.1216   -7.5179   -4.2187 H   0  0  0  0  0  0  0  0  0  0  0  0
   -8.0101   -9.5927   -2.0481 H   0  0  0  0  0  0  0  0  0  0  0  0
   -6.5837   -9.1524   -3.0174 H   0  0  0  0  0  0  0  0  0  0  0  0
   -5.3759   -8.5113   -0.9489 H   0  0  0  0  0  0  0  0  0  0  0  0
   -6.8024   -8.9516    0.0205 H   0  0  0  0  0  0  0  0  0  0  0  0
   -7.4549  -11.2772    0.2852 H   0  0  0  0  0  0  0  0  0  0  0  0
   -6.7080  -13.6232    0.3188 H   0  0  0  0  0  0  0  0  0  0  0  0
   -4.6206  -14.2671   -0.8178 H   0  0  0  0  0  0  0  0  0  0  0  0
   -3.2807  -12.5650   -1.9886 H   0  0  0  0  0  0  0  0  0  0  0  0
   -4.0301  -10.2198   -2.0260 H   0  0  0  0  0  0  0  0  0  0  0  0
   -7.0506   -2.6093   -2.9710 H   0  0  0  0  0  0  0  0  0  0  0  0
   -6.8037   -1.3915   -1.6965 H   0  0  0  0  0  0  0  0  0  0  0  0
   -5.0759    0.2506   -1.8768 H   0  0  0  0  0  0  0  0  0  0  0  0
   -3.4751    1.4387   -3.3222 H   0  0  0  0  0  0  0  0  0  0  0  0
   -2.8275    0.4758   -5.4940 H   0  0  0  0  0  0  0  0  0  0  0  0
   -3.7801   -1.6756   -6.2200 H   0  0  0  0  0  0  0  0  0  0  0  0
   -5.3773   -2.8660   -4.7726 H   0  0  0  0  0  0  0  0  0  0  0  0
   -7.5139   -1.5434    1.0261 H   0  0  0  0  0  0  0  0  0  0  0  0
   -9.5368   -1.0102    0.9685 H   0  0  0  0  0  0  0  0  0  0  0  0
  -10.4077   -0.4192    2.4040 H   0  0  0  0  0  0  0  0  0  0  0  0
   -8.6288   -0.3742    2.3611 H   0  0  0  0  0  0  0  0  0  0  0  0
  1  2  1  0
  1 37  1  1
  1 38  1  0
  1 39  1  0
  2  3  1  0
  3 34  2  0
  3  4  1  0
  4  5  2  0
  4 40  1  0
  5  6  1  0
  5 41  1  0
  6  7  1  0
  6 33  2  0
  7  8  2  0
  7  9  2  0
  7 10  1  6
 10 11  1  0
 10 26  1  0
 11 12  1  0
 11 42  1  6
 11 43  1  0
 12 13  2  0
 12 14  1  0
 14 15  1  0
 14 44  1  0
 15 16  1  1
 15 17  1  0
 15 18  1  0
 17 45  1  1
 17 46  1  0
 17 47  1  0
 18 19  1  0
 18 48  1  1
 18 49  1  0
 19 20  1  0
 19 50  1  6
 19 51  1  0
 20 25  2  0
 20 21  1  0
 21 22  2  0
 21 52  1  0
 22 23  1  0
 22 53  1  0
 23 24  2  0
 23 54  1  0
 24 25  1  0
 24 55  1  0
 25 56  1  0
 26 27  1  0
 26 57  1  6
 26 58  1  0
 27 32  2  0
 27 28  1  0
 28 29  2  0
 28 59  1  0
 29 30  1  0
 29 60  1  0
 30 31  2  0
 30 61  1  0
 31 32  1  0
 31 62  1  0
 32 63  1  0
 33 34  1  0
 33 64  1  0
 34 35  1  0
 35 36  1  0
 36 65  1  6
 36 66  1  0
 36 67  1  0
M  END
$$$$
