ZINC000096446586
     RDKit          3D

 40 41  0  0  0  0  0  0  0  0999 V2000
   -0.1497    1.3618    0.0920 C   0  0  1  0  0  0  0  0  0  0  0  0
   -0.1010   -0.0661    0.0633 O   0  0  0  0  0  0  0  0  0  0  0  0
    0.5661   -0.6020   -1.0811 C   0  0  1  0  0  0  0  0  0  0  0  0
    2.0566   -0.7633   -0.7734 C   0  0  1  0  0  0  0  0  0  0  0  0
    2.7741   -1.3054   -2.0136 C   0  0  1  0  0  0  0  0  0  0  0  0
    2.1089   -2.5436   -2.4414 N   0  0  0  0  0  0  0  0  0  0  0  0
    2.9768   -3.9379   -2.6535 S   0  0  1  0  0  0  0  0  0  0  0  0
    2.1761   -4.7901   -3.4608 O   0  0  0  0  0  0  0  0  0  0  0  0
    4.2935   -3.5405   -3.0108 O   0  0  0  0  0  0  0  0  0  0  0  0
    3.1028   -4.7184   -1.0788 C   0  0  0  0  0  0  0  0  0  0  0  0
    4.3239   -4.7814   -0.4344 C   0  0  0  0  0  0  0  0  0  0  0  0
    4.4227   -5.3938    0.8011 C   0  0  0  0  0  0  0  0  0  0  0  0
    5.7543   -5.4629    1.5035 C   0  0  1  0  0  0  0  0  0  0  0  0
    5.9143   -4.3324    2.3119 F   0  0  0  0  0  0  0  0  0  0  0  0
    5.8039   -6.6142    2.2967 F   0  0  0  0  0  0  0  0  0  0  0  0
    6.7807   -5.5062    0.5539 F   0  0  0  0  0  0  0  0  0  0  0  0
    3.3002   -5.9422    1.3924 C   0  0  0  0  0  0  0  0  0  0  0  0
    2.0787   -5.8788    0.7481 C   0  0  0  0  0  0  0  0  0  0  0  0
    1.9790   -5.2628   -0.4852 C   0  0  0  0  0  0  0  0  0  0  0  0
    0.6475   -5.1936   -1.1875 C   0  0  1  0  0  0  0  0  0  0  0  0
    0.6588   -2.5213   -2.6772 C   0  0  1  0  0  0  0  0  0  0  0  0
   -0.0351   -1.9656   -1.4296 C   0  0  1  0  0  0  0  0  0  0  0  0
    0.8650    1.7600    0.0954 H   0  0  0  0  0  0  0  0  0  0  0  0
   -0.6796    1.7250   -0.7885 H   0  0  0  0  0  0  0  0  0  0  0  0
   -0.6716    1.6896    0.9910 H   0  0  0  0  0  0  0  0  0  0  0  0
    0.4411    0.0764   -1.9251 H   0  0  0  0  0  0  0  0  0  0  0  0
    2.4789    0.2043   -0.5026 H   0  0  0  0  0  0  0  0  0  0  0  0
    2.1837   -1.4609    0.0545 H   0  0  0  0  0  0  0  0  0  0  0  0
    2.7254   -0.5685   -2.8152 H   0  0  0  0  0  0  0  0  0  0  0  0
    3.8157   -1.5155   -1.7704 H   0  0  0  0  0  0  0  0  0  0  0  0
    5.2009   -4.3525   -0.8963 H   0  0  0  0  0  0  0  0  0  0  0  0
    3.3775   -6.4206    2.3576 H   0  0  0  0  0  0  0  0  0  0  0  0
    1.2016   -6.3076    1.2099 H   0  0  0  0  0  0  0  0  0  0  0  0
    0.1751   -4.2341   -0.9771 H   0  0  0  0  0  0  0  0  0  0  0  0
    0.7978   -5.2967   -2.2622 H   0  0  0  0  0  0  0  0  0  0  0  0
    0.0065   -6.0001   -0.8313 H   0  0  0  0  0  0  0  0  0  0  0  0
    0.4375   -1.8835   -3.5330 H   0  0  0  0  0  0  0  0  0  0  0  0
    0.3047   -3.5336   -2.8720 H   0  0  0  0  0  0  0  0  0  0  0  0
    0.1118   -2.6518   -0.5956 H   0  0  0  0  0  0  0  0  0  0  0  0
   -1.1014   -1.8536   -1.6258 H   0  0  0  0  0  0  0  0  0  0  0  0
  1  2  1  0
  1 23  1  1
  1 24  1  0
  1 25  1  0
  2  3  1  0
  3 22  1  0
  3  4  1  0
  3 26  1  6
  4  5  1  0
  4 27  1  1
  4 28  1  0
  5  6  1  0
  5 29  1  6
  5 30  1  0
  7  6  1  1
  6 21  1  0
  7  8  2  0
  7  9  2  0
  7 10  1  0
 10 19  2  0
 10 11  1  0
 11 12  2  0
 11 31  1  0
 12 13  1  0
 12 17  1  0
 13 14  1  1
 13 15  1  0
 13 16  1  0
 17 18  2  0
 17 32  1  0
 18 19  1  0
 18 33  1  0
 19 20  1  0
 20 34  1  6
 20 35  1  0
 20 36  1  0
 21 22  1  0
 21 37  1  6
 21 38  1  0
 22 39  1  1
 22 40  1  0
M  END
$$$$
