ZINC000408621012
     RDKit          3D

 61 62  0  0  1  0  0  0  0  0999 V2000
   -0.0173    1.4248    0.0099 C   0  0  1  0  0  0  0  0  0  0  0  0
    0.0021   -0.0041    0.0020 O   0  0  0  0  0  0  0  0  0  0  0  0
    0.6518   -0.5703   -1.1379 C   0  0  1  0  0  0  0  0  0  0  0  0
    0.6131   -2.0967   -1.0411 C   0  0  2  0  0  0  0  0  0  0  0  0
    1.0288   -2.5292   -1.9512 H   0  0  0  0  0  0  0  0  0  0  0  0
   -0.8350   -2.5604   -0.8713 C   0  0  1  0  0  0  0  0  0  0  0  0
    1.4039   -2.5331    0.1124 N   0  0  0  0  0  0  0  0  0  0  0  0
    1.9385   -3.7701    0.1337 C   0  0  0  0  0  0  0  0  0  0  0  0
    1.7649   -4.5220   -0.8019 O   0  0  0  0  0  0  0  0  0  0  0  0
    2.7520   -4.2190    1.3202 C   0  0  1  0  0  0  0  0  0  0  0  0
    3.2178   -5.5908    1.1021 N   0  0  0  0  0  0  0  0  0  0  0  0
    4.4475   -5.8351    0.3443 C   0  0  1  0  0  0  0  0  0  0  0  0
    5.6529   -5.7307    1.2807 C   0  0  1  0  0  0  0  0  0  0  0  0
    6.9179   -5.9820    0.5011 C   0  0  0  0  0  0  0  0  0  0  0  0
    7.4102   -7.2678    0.3783 C   0  0  0  0  0  0  0  0  0  0  0  0
    8.5705   -7.4983   -0.3368 C   0  0  0  0  0  0  0  0  0  0  0  0
    9.2383   -6.4430   -0.9295 C   0  0  0  0  0  0  0  0  0  0  0  0
    8.7455   -5.1573   -0.8074 C   0  0  0  0  0  0  0  0  0  0  0  0
    7.5829   -4.9273   -0.0959 C   0  0  0  0  0  0  0  0  0  0  0  0
    2.3542   -6.8653    1.7123 S   0  0  1  0  0  0  0  0  0  0  0  0
    3.2689   -7.9452    1.8402 O   0  0  0  0  0  0  0  0  0  0  0  0
    1.5989   -6.3533    2.8016 O   0  0  0  0  0  0  0  0  0  0  0  0
    1.1891   -7.3435    0.4800 C   0  0  0  0  0  0  0  0  0  0  0  0
   -0.0652   -6.7636    0.4551 C   0  0  0  0  0  0  0  0  0  0  0  0
   -0.9833   -7.1358   -0.5097 C   0  0  0  0  0  0  0  0  0  0  0  0
   -0.6465   -8.0915   -1.4543 C   0  0  0  0  0  0  0  0  0  0  0  0
   -1.5481   -8.4583   -2.4040 O   0  0  0  0  0  0  0  0  0  0  0  0
   -2.8247   -7.8172   -2.3688 C   0  0  1  0  0  0  0  0  0  0  0  0
    0.6170   -8.6751   -1.4294 C   0  0  0  0  0  0  0  0  0  0  0  0
    0.9525   -9.6134   -2.3549 O   0  0  0  0  0  0  0  0  0  0  0  0
    2.2661  -10.1693   -2.2684 C   0  0  1  0  0  0  0  0  0  0  0  0
    1.5337   -8.2940   -0.4634 C   0  0  0  0  0  0  0  0  0  0  0  0
    1.0053    1.8021    0.0021 H   0  0  0  0  0  0  0  0  0  0  0  0
   -0.5445    1.7859   -0.8732 H   0  0  0  0  0  0  0  0  0  0  0  0
   -0.5275    1.7763    0.9067 H   0  0  0  0  0  0  0  0  0  0  0  0
    0.1385   -0.2506   -2.0447 H   0  0  0  0  0  0  0  0  0  0  0  0
    1.6883   -0.2344   -1.1694 H   0  0  0  0  0  0  0  0  0  0  0  0
   -1.4235   -2.2357   -1.7295 H   0  0  0  0  0  0  0  0  0  0  0  0
   -0.8626   -3.6479   -0.8024 H   0  0  0  0  0  0  0  0  0  0  0  0
   -1.2507   -2.1280    0.0388 H   0  0  0  0  0  0  0  0  0  0  0  0
    1.5428   -1.9317    0.8607 H   0  0  0  0  0  0  0  0  0  0  0  0
    3.6107   -3.5589    1.4427 H   0  0  0  0  0  0  0  0  0  0  0  0
    2.1352   -4.1832    2.2182 H   0  0  0  0  0  0  0  0  0  0  0  0
    4.4126   -6.8328   -0.0932 H   0  0  0  0  0  0  0  0  0  0  0  0
    4.5386   -5.0934   -0.4493 H   0  0  0  0  0  0  0  0  0  0  0  0
    5.6879   -4.7330    1.7182 H   0  0  0  0  0  0  0  0  0  0  0  0
    5.5618   -6.4724    2.0743 H   0  0  0  0  0  0  0  0  0  0  0  0
    6.8885   -8.0923    0.8414 H   0  0  0  0  0  0  0  0  0  0  0  0
    8.9556   -8.5029   -0.4321 H   0  0  0  0  0  0  0  0  0  0  0  0
   10.1453   -6.6230   -1.4876 H   0  0  0  0  0  0  0  0  0  0  0  0
    9.2674   -4.3328   -1.2702 H   0  0  0  0  0  0  0  0  0  0  0  0
    7.1978   -3.9228   -0.0006 H   0  0  0  0  0  0  0  0  0  0  0  0
   -0.3290   -6.0184    1.1909 H   0  0  0  0  0  0  0  0  0  0  0  0
   -1.9630   -6.6817   -0.5266 H   0  0  0  0  0  0  0  0  0  0  0  0
   -3.4461   -8.2002   -3.1782 H   0  0  0  0  0  0  0  0  0  0  0  0
   -3.3072   -8.0207   -1.4128 H   0  0  0  0  0  0  0  0  0  0  0  0
   -2.6945   -6.7416   -2.4884 H   0  0  0  0  0  0  0  0  0  0  0  0
    2.3924  -10.6543   -1.3004 H   0  0  0  0  0  0  0  0  0  0  0  0
    2.4034  -10.9027   -3.0630 H   0  0  0  0  0  0  0  0  0  0  0  0
    3.0046   -9.3748   -2.3757 H   0  0  0  0  0  0  0  0  0  0  0  0
    2.5147   -8.7453   -0.4419 H   0  0  0  0  0  0  0  0  0  0  0  0
  1  2  1  0
  1 33  1  6
  1 34  1  0
  1 35  1  0
  2  3  1  0
  3  4  1  0
  3 36  1  6
  3 37  1  0
  4  5  1  6
  4  6  1  0
  4  7  1  0
  6 38  1  6
  6 39  1  0
  6 40  1  0
  7  8  1  0
  7 41  1  0
  8  9  2  0
  8 10  1  0
 10 11  1  0
 10 42  1  1
 10 43  1  0
 11 12  1  0
 20 11  1  6
 12 13  1  0
 12 44  1  6
 12 45  1  0
 13 14  1  0
 13 46  1  1
 13 47  1  0
 14 19  2  0
 14 15  1  0
 15 16  2  0
 15 48  1  0
 16 17  1  0
 16 49  1  0
 17 18  2  0
 17 50  1  0
 18 19  1  0
 18 51  1  0
 19 52  1  0
 20 21  2  0
 20 22  2  0
 20 23  1  0
 23 32  2  0
 23 24  1  0
 24 25  2  0
 24 53  1  0
 25 26  1  0
 25 54  1  0
 26 27  1  0
 26 29  2  0
 27 28  1  0
 28 55  1  6
 28 56  1  0
 28 57  1  0
 29 30  1  0
 29 32  1  0
 30 31  1  0
 31 58  1  1
 31 59  1  0
 31 60  1  0
 32 61  1  0
M  END
$$$$
