ZINC000226857008
     RDKit          3D

 49 51  0  0  0  0  0  0  0  0999 V2000
   -0.2774    0.4556    0.6817 C   0  0  1  0  0  0  0  0  0  0  0  0
   -0.0189   -0.9366    0.4895 O   0  0  0  0  0  0  0  0  0  0  0  0
    0.5781   -1.2972   -0.6733 C   0  0  0  0  0  0  0  0  0  0  0  0
    0.9158   -0.3332   -1.6114 C   0  0  0  0  0  0  0  0  0  0  0  0
    1.5241   -0.7018   -2.7949 C   0  0  0  0  0  0  0  0  0  0  0  0
    1.8022   -2.0338   -3.0558 C   0  0  0  0  0  0  0  0  0  0  0  0
    2.5795   -2.4867   -4.5708 S   0  0  1  0  0  0  0  0  0  0  0  0
    2.0993   -3.7839   -4.8962 O   0  0  0  0  0  0  0  0  0  0  0  0
    2.4486   -1.3692   -5.4387 O   0  0  0  0  0  0  0  0  0  0  0  0
    4.1980   -2.6512   -4.2614 N   0  0  0  0  0  0  0  0  0  0  0  0
    4.7152   -3.9082   -3.7147 C   0  0  1  0  0  0  0  0  0  0  0  0
    5.2085   -4.7803   -4.8404 C   0  0  0  0  0  0  0  0  0  0  0  0
    4.3452   -5.6662   -5.4576 C   0  0  0  0  0  0  0  0  0  0  0  0
    4.7977   -6.4661   -6.4902 C   0  0  0  0  0  0  0  0  0  0  0  0
    6.1133   -6.3799   -6.9058 C   0  0  0  0  0  0  0  0  0  0  0  0
    6.9763   -5.4934   -6.2892 C   0  0  0  0  0  0  0  0  0  0  0  0
    6.5227   -4.6904   -5.2595 C   0  0  0  0  0  0  0  0  0  0  0  0
    5.1127   -1.5399   -4.5343 C   0  0  1  0  0  0  0  0  0  0  0  0
    5.3579   -0.7675   -3.2637 C   0  0  0  0  0  0  0  0  0  0  0  0
    4.5663    0.3226   -2.9539 C   0  0  0  0  0  0  0  0  0  0  0  0
    4.7912    1.0312   -1.7884 C   0  0  0  0  0  0  0  0  0  0  0  0
    5.8073    0.6493   -0.9326 C   0  0  0  0  0  0  0  0  0  0  0  0
    6.5983   -0.4414   -1.2419 C   0  0  0  0  0  0  0  0  0  0  0  0
    6.3707   -1.1525   -2.4053 C   0  0  0  0  0  0  0  0  0  0  0  0
    1.4744   -3.0058   -2.1363 C   0  0  0  0  0  0  0  0  0  0  0  0
    0.8627   -2.6471   -0.9310 C   0  0  0  0  0  0  0  0  0  0  0  0
    0.5095   -3.6798    0.0562 C   0  0  0  0  0  0  0  0  0  0  0  0
    0.7509   -4.8564   -0.1763 O   0  0  0  0  0  0  0  0  0  0  0  0
   -0.0255   -3.3617    1.1094 O   0  0  0  0  0  0  0  0  0  0  0  0
    0.6623    1.0071    0.6517 H   0  0  0  0  0  0  0  0  0  0  0  0
   -0.9354    0.8155   -0.1093 H   0  0  0  0  0  0  0  0  0  0  0  0
   -0.7563    0.6061    1.6492 H   0  0  0  0  0  0  0  0  0  0  0  0
    0.7022    0.7073   -1.4161 H   0  0  0  0  0  0  0  0  0  0  0  0
    1.7846    0.0531   -3.5220 H   0  0  0  0  0  0  0  0  0  0  0  0
    5.5380   -3.6962   -3.0320 H   0  0  0  0  0  0  0  0  0  0  0  0
    3.9204   -4.4246   -3.1765 H   0  0  0  0  0  0  0  0  0  0  0  0
    3.3174   -5.7335   -5.1329 H   0  0  0  0  0  0  0  0  0  0  0  0
    4.1235   -7.1588   -6.9720 H   0  0  0  0  0  0  0  0  0  0  0  0
    6.4670   -7.0054   -7.7121 H   0  0  0  0  0  0  0  0  0  0  0  0
    8.0042   -5.4263   -6.6137 H   0  0  0  0  0  0  0  0  0  0  0  0
    7.1969   -3.9978   -4.7777 H   0  0  0  0  0  0  0  0  0  0  0  0
    6.0582   -1.9313   -4.9097 H   0  0  0  0  0  0  0  0  0  0  0  0
    4.6704   -0.8803   -5.2809 H   0  0  0  0  0  0  0  0  0  0  0  0
    3.7724    0.6210   -3.6226 H   0  0  0  0  0  0  0  0  0  0  0  0
    4.1732    1.8833   -1.5467 H   0  0  0  0  0  0  0  0  0  0  0  0
    5.9835    1.2033   -0.0224 H   0  0  0  0  0  0  0  0  0  0  0  0
    7.3924   -0.7395   -0.5734 H   0  0  0  0  0  0  0  0  0  0  0  0
    6.9886   -2.0046   -2.6470 H   0  0  0  0  0  0  0  0  0  0  0  0
    1.6933   -4.0428   -2.3442 H   0  0  0  0  0  0  0  0  0  0  0  0
  1  2  1  0
  1 30  1  1
  1 31  1  0
  1 32  1  0
  2  3  1  0
  3 26  2  0
  3  4  1  0
  4  5  2  0
  4 33  1  0
  5  6  1  0
  5 34  1  0
  6  7  1  0
  6 25  2  0
  7  8  2  0
  7  9  2  0
  7 10  1  1
 10 11  1  0
 10 18  1  0
 11 12  1  0
 11 35  1  1
 11 36  1  0
 12 17  2  0
 12 13  1  0
 13 14  2  0
 13 37  1  0
 14 15  1  0
 14 38  1  0
 15 16  2  0
 15 39  1  0
 16 17  1  0
 16 40  1  0
 17 41  1  0
 18 19  1  0
 18 42  1  6
 18 43  1  0
 19 24  2  0
 19 20  1  0
 20 21  2  0
 20 44  1  0
 21 22  1  0
 21 45  1  0
 22 23  2  0
 22 46  1  0
 23 24  1  0
 23 47  1  0
 24 48  1  0
 25 26  1  0
 25 49  1  0
 26 27  1  0
 27 28  2  0
 27 29  1  0
M  END
$$$$
