ZINC000016161758
     RDKit          3D

 56 58  0  0  0  0  0  0  0  0999 V2000
    0.9242   -1.0377    0.7127 C   0  0  1  0  0  0  0  0  0  0  0  0
    0.0137   -0.0360   -0.0004 C   0  0  1  0  0  0  0  0  0  0  0  0
   -1.4033   -0.5487    0.0108 C   0  0  0  0  0  0  0  0  0  0  0  0
   -1.8550   -1.3508   -1.0211 C   0  0  0  0  0  0  0  0  0  0  0  0
   -3.1531   -1.8223   -1.0137 C   0  0  0  0  0  0  0  0  0  0  0  0
   -4.0049   -1.4904    0.0317 C   0  0  0  0  0  0  0  0  0  0  0  0
   -5.3205   -1.9668    0.0423 N   0  0  0  0  0  0  0  0  0  0  0  0
   -5.9972   -2.1032   -1.1152 C   0  0  0  0  0  0  0  0  0  0  0  0
   -5.4399   -1.8935   -2.1719 O   0  0  0  0  0  0  0  0  0  0  0  0
   -7.4464   -2.5164   -1.0967 C   0  0  1  0  0  0  0  0  0  0  0  0
   -7.9499   -2.5930   -2.4703 N   0  0  0  0  0  0  0  0  0  0  0  0
   -7.7569   -3.8156   -3.2541 C   0  0  1  0  0  0  0  0  0  0  0  0
   -8.8821   -4.8043   -2.9422 C   0  0  1  0  0  0  0  0  0  0  0  0
   -8.6836   -6.0619   -3.7485 C   0  0  0  0  0  0  0  0  0  0  0  0
   -9.2427   -6.1710   -5.0080 C   0  0  0  0  0  0  0  0  0  0  0  0
   -9.0606   -7.3246   -5.7475 C   0  0  0  0  0  0  0  0  0  0  0  0
   -8.3189   -8.3689   -5.2278 C   0  0  0  0  0  0  0  0  0  0  0  0
   -7.7590   -8.2595   -3.9686 C   0  0  0  0  0  0  0  0  0  0  0  0
   -7.9376   -7.1042   -3.2308 C   0  0  0  0  0  0  0  0  0  0  0  0
   -8.7373   -1.2977   -3.1370 S   0  0  1  0  0  0  0  0  0  0  0  0
   -9.6664   -1.8303   -4.0711 O   0  0  0  0  0  0  0  0  0  0  0  0
   -9.1174   -0.4588   -2.0549 O   0  0  0  0  0  0  0  0  0  0  0  0
   -7.5516   -0.3931   -4.0753 C   0  0  0  0  0  0  0  0  0  0  0  0
   -6.8195    0.6149   -3.4761 C   0  0  0  0  0  0  0  0  0  0  0  0
   -5.8893    1.3247   -4.2122 C   0  0  0  0  0  0  0  0  0  0  0  0
   -5.6907    1.0261   -5.5472 C   0  0  0  0  0  0  0  0  0  0  0  0
   -6.4222    0.0175   -6.1461 C   0  0  0  0  0  0  0  0  0  0  0  0
   -7.3494   -0.6951   -5.4090 C   0  0  0  0  0  0  0  0  0  0  0  0
   -3.5481   -0.6851    1.0667 C   0  0  0  0  0  0  0  0  0  0  0  0
   -2.2474   -0.2207    1.0559 C   0  0  0  0  0  0  0  0  0  0  0  0
    1.9491   -0.6669    0.7045 H   0  0  0  0  0  0  0  0  0  0  0  0
    0.5910   -1.1621    1.7430 H   0  0  0  0  0  0  0  0  0  0  0  0
    0.8811   -1.9979    0.1985 H   0  0  0  0  0  0  0  0  0  0  0  0
    0.0568    0.9241    0.5138 H   0  0  0  0  0  0  0  0  0  0  0  0
    0.3470    0.0884   -1.0307 H   0  0  0  0  0  0  0  0  0  0  0  0
   -1.1921   -1.6086   -1.8338 H   0  0  0  0  0  0  0  0  0  0  0  0
   -3.5055   -2.4481   -1.8203 H   0  0  0  0  0  0  0  0  0  0  0  0
   -5.7455   -2.1990    0.8828 H   0  0  0  0  0  0  0  0  0  0  0  0
   -7.5399   -3.4924   -0.6205 H   0  0  0  0  0  0  0  0  0  0  0  0
   -8.0264   -1.7822   -0.5375 H   0  0  0  0  0  0  0  0  0  0  0  0
   -7.7712   -3.5722   -4.3164 H   0  0  0  0  0  0  0  0  0  0  0  0
   -6.7974   -4.2643   -2.9970 H   0  0  0  0  0  0  0  0  0  0  0  0
   -8.8679   -5.0477   -1.8799 H   0  0  0  0  0  0  0  0  0  0  0  0
   -9.8417   -4.3556   -3.1993 H   0  0  0  0  0  0  0  0  0  0  0  0
   -9.8222   -5.3551   -5.4141 H   0  0  0  0  0  0  0  0  0  0  0  0
   -9.4981   -7.4101   -6.7313 H   0  0  0  0  0  0  0  0  0  0  0  0
   -8.1772   -9.2705   -5.8053 H   0  0  0  0  0  0  0  0  0  0  0  0
   -7.1799   -9.0756   -3.5624 H   0  0  0  0  0  0  0  0  0  0  0  0
   -7.5001   -7.0187   -2.2471 H   0  0  0  0  0  0  0  0  0  0  0  0
   -6.9746    0.8482   -2.4331 H   0  0  0  0  0  0  0  0  0  0  0  0
   -5.3178    2.1126   -3.7443 H   0  0  0  0  0  0  0  0  0  0  0  0
   -4.9645    1.5811   -6.1225 H   0  0  0  0  0  0  0  0  0  0  0  0
   -6.2673   -0.2155   -7.1892 H   0  0  0  0  0  0  0  0  0  0  0  0
   -7.9208   -1.4831   -5.8768 H   0  0  0  0  0  0  0  0  0  0  0  0
   -4.2082   -0.4252    1.8811 H   0  0  0  0  0  0  0  0  0  0  0  0
   -1.8916    0.4056    1.8605 H   0  0  0  0  0  0  0  0  0  0  0  0
  1  2  1  0
  1 31  1  1
  1 32  1  0
  1 33  1  0
  2  3  1  0
  2 34  1  1
  2 35  1  0
  3 30  2  0
  3  4  1  0
  4  5  2  0
  4 36  1  0
  5  6  1  0
  5 37  1  0
  6  7  1  0
  6 29  2  0
  7  8  1  0
  7 38  1  0
  8  9  2  0
  8 10  1  0
 10 11  1  0
 10 39  1  1
 10 40  1  0
 11 12  1  0
 20 11  1  1
 12 13  1  0
 12 41  1  6
 12 42  1  0
 13 14  1  0
 13 43  1  1
 13 44  1  0
 14 19  2  0
 14 15  1  0
 15 16  2  0
 15 45  1  0
 16 17  1  0
 16 46  1  0
 17 18  2  0
 17 47  1  0
 18 19  1  0
 18 48  1  0
 19 49  1  0
 20 21  2  0
 20 22  2  0
 20 23  1  0
 23 28  2  0
 23 24  1  0
 24 25  2  0
 24 50  1  0
 25 26  1  0
 25 51  1  0
 26 27  2  0
 26 52  1  0
 27 28  1  0
 27 53  1  0
 28 54  1  0
 29 30  1  0
 29 55  1  0
 30 56  1  0
M  END
$$$$
