ZINC000072194202
     RDKit          3D

 43 46  0  0  0  0  0  0  0  0999 V2000
   -0.1144    0.6874    0.3323 O   0  0  0  0  0  0  0  0  0  0  0  0
   -0.0279    1.8913    0.1879 C   0  0  0  0  0  0  0  0  0  0  0  0
   -1.2455    2.7310    0.1580 C   0  0  0  0  0  0  0  0  0  0  0  0
   -2.5007    2.1523    0.0058 C   0  0  0  0  0  0  0  0  0  0  0  0
   -3.6293    2.9538   -0.0201 C   0  0  0  0  0  0  0  0  0  0  0  0
   -3.5175    4.3263    0.1042 C   0  0  0  0  0  0  0  0  0  0  0  0
   -2.2752    4.9185    0.2560 C   0  0  0  0  0  0  0  0  0  0  0  0
   -1.1317    4.1280    0.2842 C   0  0  0  0  0  0  0  0  0  0  0  0
    0.2049    4.7423    0.4434 C   0  0  0  0  0  0  0  0  0  0  0  0
    0.3114    5.9001    0.7979 O   0  0  0  0  0  0  0  0  0  0  0  0
    1.4069    3.9328    0.1662 C   0  0  0  0  0  0  0  0  0  0  0  0
    1.2938    2.5333    0.0466 C   0  0  0  0  0  0  0  0  0  0  0  0
    2.4251    1.7671   -0.2160 C   0  0  0  0  0  0  0  0  0  0  0  0
    3.6583    2.3784   -0.3594 C   0  0  0  0  0  0  0  0  0  0  0  0
    5.0852    1.3999   -0.6928 S   0  0  1  0  0  0  0  0  0  0  0  0
    6.0861    1.8253    0.2217 O   0  0  0  0  0  0  0  0  0  0  0  0
    4.6368    0.0545   -0.7838 O   0  0  0  0  0  0  0  0  0  0  0  0
    5.6234    1.8164   -2.2025 N   0  0  0  0  0  0  0  0  0  0  0  0
    4.8023    1.6209   -3.3153 C   0  0  0  0  0  0  0  0  0  0  0  0
    4.1175    0.4227   -3.4732 C   0  0  0  0  0  0  0  0  0  0  0  0
    3.3060    0.2329   -4.5744 C   0  0  0  0  0  0  0  0  0  0  0  0
    3.1752    1.2338   -5.5196 C   0  0  0  0  0  0  0  0  0  0  0  0
    2.2888    1.0231   -6.7200 C   0  0  1  0  0  0  0  0  0  0  0  0
    0.9916    1.4549   -6.4234 F   0  0  0  0  0  0  0  0  0  0  0  0
    2.7879    1.7552   -7.8026 F   0  0  0  0  0  0  0  0  0  0  0  0
    2.2639   -0.3366   -7.0484 F   0  0  0  0  0  0  0  0  0  0  0  0
    3.8555    2.4278   -5.3655 C   0  0  0  0  0  0  0  0  0  0  0  0
    4.6641    2.6265   -4.2637 C   0  0  0  0  0  0  0  0  0  0  0  0
    3.7800    3.7532   -0.2435 C   0  0  0  0  0  0  0  0  0  0  0  0
    4.9965    4.3385   -0.3866 O   0  0  0  0  0  0  0  0  0  0  0  0
    2.6541    4.5400    0.0252 C   0  0  0  0  0  0  0  0  0  0  0  0
    2.7736    5.8862    0.1384 O   0  0  0  0  0  0  0  0  0  0  0  0
   -2.5949    1.0809   -0.0924 H   0  0  0  0  0  0  0  0  0  0  0  0
   -4.6039    2.5038   -0.1385 H   0  0  0  0  0  0  0  0  0  0  0  0
   -4.4053    4.9408    0.0825 H   0  0  0  0  0  0  0  0  0  0  0  0
   -2.1947    5.9912    0.3520 H   0  0  0  0  0  0  0  0  0  0  0  0
    2.3408    0.6943   -0.3075 H   0  0  0  0  0  0  0  0  0  0  0  0
    6.5090    2.1962   -2.3139 H   0  0  0  0  0  0  0  0  0  0  0  0
    4.2198   -0.3597   -2.7357 H   0  0  0  0  0  0  0  0  0  0  0  0
    2.7733   -0.6985   -4.6978 H   0  0  0  0  0  0  0  0  0  0  0  0
    3.7510    3.2075   -6.1055 H   0  0  0  0  0  0  0  0  0  0  0  0
    5.1949    3.5593   -4.1438 H   0  0  0  0  0  0  0  0  0  0  0  0
    2.6614    6.3626   -0.6956 H   0  0  0  0  0  0  0  0  0  0  0  0
  1  2  2  0
  2 12  1  0
  2  3  1  0
  3  8  2  0
  3  4  1  0
  4  5  2  0
  4 33  1  0
  5  6  1  0
  5 34  1  0
  6  7  2  0
  6 35  1  0
  7  8  1  0
  7 36  1  0
  8  9  1  0
  9 10  2  0
  9 11  1  0
 11 31  2  0
 11 12  1  0
 12 13  2  0
 13 14  1  0
 13 37  1  0
 14 15  1  0
 14 29  2  0
 15 16  2  0
 15 17  2  0
 15 18  1  6
 18 19  1  0
 18 38  1  0
 19 28  2  0
 19 20  1  0
 20 21  2  0
 20 39  1  0
 21 22  1  0
 21 40  1  0
 22 23  1  0
 22 27  2  0
 23 24  1  1
 23 25  1  0
 23 26  1  0
 27 28  1  0
 27 41  1  0
 28 42  1  0
 29 30  1  0
 29 31  1  0
 31 32  1  0
 32 43  1  0
M  END
$$$$
