ZINC000096245396
     RDKit          3D

 50 53  0  0  1  0  0  0  0  0999 V2000
    0.0021   -0.0041    0.0020 O   0  0  0  0  0  0  0  0  0  0  0  0
   -0.0172    1.4168    0.0098 S   0  0  1  0  0  0  0  0  0  0  0  0
    1.1617    2.2101    0.0028 O   0  0  0  0  0  0  0  0  0  0  0  0
   -0.9567    1.9094   -1.3970 C   0  0  0  0  0  0  0  0  0  0  0  0
   -1.8848    1.0442   -1.9458 C   0  0  0  0  0  0  0  0  0  0  0  0
   -2.6219    1.4307   -3.0496 C   0  0  0  0  0  0  0  0  0  0  0  0
   -2.4313    2.6825   -3.6042 C   0  0  0  0  0  0  0  0  0  0  0  0
   -1.5039    3.5480   -3.0548 C   0  0  0  0  0  0  0  0  0  0  0  0
   -0.7699    3.1631   -1.9485 C   0  0  0  0  0  0  0  0  0  0  0  0
   -0.8748    1.8654    1.3536 N   0  0  0  0  0  0  0  0  0  0  0  0
   -0.7627    3.1577    2.0376 C   0  0  1  0  0  0  0  0  0  0  0  0
   -2.0102    3.3105    2.9192 C   0  0  1  0  0  0  0  0  0  0  0  0
   -1.8192    3.8850    3.8256 H   0  0  0  0  0  0  0  0  0  0  0  0
   -3.1760    3.8826    2.0808 C   0  0  1  0  0  0  0  0  0  0  0  0
   -4.3758    3.2745    2.7117 N   0  0  1  0  0  0  0  0  0  0  0  0
   -4.6188    3.7766    3.5525 H   0  0  0  0  0  0  0  0  0  0  0  0
   -5.5036    3.2862    1.7705 C   0  0  1  0  0  0  0  0  0  0  0  0
   -6.7420    2.7802    2.4642 C   0  0  0  0  0  0  0  0  0  0  0  0
   -7.0385    1.4300    2.4516 C   0  0  0  0  0  0  0  0  0  0  0  0
   -8.1745    0.9659    3.0879 C   0  0  0  0  0  0  0  0  0  0  0  0
   -9.0139    1.8518    3.7372 C   0  0  0  0  0  0  0  0  0  0  0  0
  -10.2526    1.3459    4.4304 C   0  0  1  0  0  0  0  0  0  0  0  0
   -9.9467    1.0267    5.7578 F   0  0  0  0  0  0  0  0  0  0  0  0
  -11.2393    2.3374    4.4047 F   0  0  0  0  0  0  0  0  0  0  0  0
  -10.7218    0.2039    3.7724 F   0  0  0  0  0  0  0  0  0  0  0  0
   -8.7166    3.2018    3.7510 C   0  0  0  0  0  0  0  0  0  0  0  0
   -7.5786    3.6654    3.1179 C   0  0  0  0  0  0  0  0  0  0  0  0
   -3.9986    1.8833    3.0401 C   0  0  1  0  0  0  0  0  0  0  0  0
   -2.4534    1.8481    3.2069 C   0  0  1  0  0  0  0  0  0  0  0  0
   -2.1446    1.4784    4.1847 H   0  0  0  0  0  0  0  0  0  0  0  0
   -1.8678    1.0354    2.0399 C   0  0  1  0  0  0  0  0  0  0  0  0
   -2.0336    0.0662   -1.5125 H   0  0  0  0  0  0  0  0  0  0  0  0
   -3.3464    0.7545   -3.4788 H   0  0  0  0  0  0  0  0  0  0  0  0
   -3.0067    2.9841   -4.4670 H   0  0  0  0  0  0  0  0  0  0  0  0
   -1.3548    4.5258   -3.4884 H   0  0  0  0  0  0  0  0  0  0  0  0
   -0.0453    3.8393   -1.5193 H   0  0  0  0  0  0  0  0  0  0  0  0
    0.1340    3.1733    2.6572 H   0  0  0  0  0  0  0  0  0  0  0  0
   -0.7249    3.9637    1.3048 H   0  0  0  0  0  0  0  0  0  0  0  0
   -3.2091    4.9693    2.1586 H   0  0  0  0  0  0  0  0  0  0  0  0
   -3.0897    3.5725    1.0394 H   0  0  0  0  0  0  0  0  0  0  0  0
   -5.6737    4.3041    1.4199 H   0  0  0  0  0  0  0  0  0  0  0  0
   -5.2744    2.6428    0.9210 H   0  0  0  0  0  0  0  0  0  0  0  0
   -6.3828    0.7379    1.9443 H   0  0  0  0  0  0  0  0  0  0  0  0
   -8.4065   -0.0888    3.0774 H   0  0  0  0  0  0  0  0  0  0  0  0
   -9.3722    3.8939    4.2586 H   0  0  0  0  0  0  0  0  0  0  0  0
   -7.3464    4.7201    3.1287 H   0  0  0  0  0  0  0  0  0  0  0  0
   -4.4701    1.5824    3.9756 H   0  0  0  0  0  0  0  0  0  0  0  0
   -4.3073    1.2158    2.2355 H   0  0  0  0  0  0  0  0  0  0  0  0
   -2.6614    0.7715    1.3409 H   0  0  0  0  0  0  0  0  0  0  0  0
   -1.3990    0.1286    2.4220 H   0  0  0  0  0  0  0  0  0  0  0  0
  1  2  2  0
  2  3  2  0
  2  4  1  0
  2 10  1  1
  4  9  2  0
  4  5  1  0
  5  6  2  0
  5 32  1  0
  6  7  1  0
  6 33  1  0
  7  8  2  0
  7 34  1  0
  8  9  1  0
  8 35  1  0
  9 36  1  0
 10 31  1  0
 10 11  1  0
 11 12  1  0
 11 37  1  1
 11 38  1  0
 12 13  1  1
 12 29  1  0
 12 14  1  0
 14 15  1  0
 14 39  1  6
 14 40  1  0
 15 16  1  1
 15 17  1  0
 15 28  1  0
 17 18  1  0
 17 41  1  6
 17 42  1  0
 18 27  2  0
 18 19  1  0
 19 20  2  0
 19 43  1  0
 20 21  1  0
 20 44  1  0
 21 22  1  0
 21 26  2  0
 22 23  1  1
 22 24  1  0
 22 25  1  0
 26 27  1  0
 26 45  1  0
 27 46  1  0
 28 29  1  0
 28 47  1  1
 28 48  1  0
 29 30  1  1
 29 31  1  0
 31 49  1  6
 31 50  1  0
M  CHG  1  15   1
M  END
$$$$
