ZINC000013056461
     RDKit          3D

 57 58  0  0  0  0  0  0  0  0999 V2000
    0.3413    0.1136    1.2463 C   0  0  1  0  0  0  0  0  0  0  0  0
    0.8025   -0.3153   -0.1480 C   0  0  1  0  0  0  0  0  0  0  0  0
    2.1597    0.3213   -0.4545 C   0  0  1  0  0  0  0  0  0  0  0  0
    0.9259   -1.7743   -0.1942 N   0  0  0  0  0  0  0  0  0  0  0  0
    0.2561   -2.4780   -1.1283 C   0  0  0  0  0  0  0  0  0  0  0  0
    0.3582   -3.6859   -1.1666 O   0  0  0  0  0  0  0  0  0  0  0  0
   -0.6199   -1.7640   -2.1253 C   0  0  1  0  0  0  0  0  0  0  0  0
   -1.3393   -2.7516   -2.9408 N   0  0  0  0  0  0  0  0  0  0  0  0
   -2.1727   -3.6216   -2.1002 C   0  0  1  0  0  0  0  0  0  0  0  0
   -3.0401   -4.5126   -2.9956 C   0  0  1  0  0  0  0  0  0  0  0  0
   -2.1634   -5.2176   -3.9430 N   0  0  0  0  0  0  0  0  0  0  0  0
   -2.2566   -6.8608   -4.1260 S   0  0  1  0  0  0  0  0  0  0  0  0
   -0.9972   -7.2801   -4.6333 O   0  0  0  0  0  0  0  0  0  0  0  0
   -2.8174   -7.3674   -2.9225 O   0  0  0  0  0  0  0  0  0  0  0  0
   -3.4355   -7.1782   -5.3964 C   0  0  0  0  0  0  0  0  0  0  0  0
   -4.7704   -7.3388   -5.0760 C   0  0  0  0  0  0  0  0  0  0  0  0
   -5.6954   -7.5878   -6.0729 C   0  0  0  0  0  0  0  0  0  0  0  0
   -5.2854   -7.6757   -7.3899 C   0  0  0  0  0  0  0  0  0  0  0  0
   -3.9503   -7.5141   -7.7105 C   0  0  0  0  0  0  0  0  0  0  0  0
   -3.5032   -7.6103   -9.1464 C   0  0  1  0  0  0  0  0  0  0  0  0
   -4.6097   -7.8668   -9.9632 F   0  0  0  0  0  0  0  0  0  0  0  0
   -2.9088   -6.4039   -9.5316 F   0  0  0  0  0  0  0  0  0  0  0  0
   -2.5760   -8.6497   -9.2774 F   0  0  0  0  0  0  0  0  0  0  0  0
   -3.0261   -7.2609   -6.7144 C   0  0  0  0  0  0  0  0  0  0  0  0
   -1.2021   -4.4244   -4.7240 C   0  0  1  0  0  0  0  0  0  0  0  0
   -0.4070   -3.5369   -3.7605 C   0  0  1  0  0  0  0  0  0  0  0  0
    1.7775   -2.4685    0.7749 C   0  0  1  0  0  0  0  0  0  0  0  0
    0.9342   -3.4647    1.5732 C   0  0  1  0  0  0  0  0  0  0  0  0
    2.8869   -3.2178    0.0343 C   0  0  1  0  0  0  0  0  0  0  0  0
    0.3280    1.2019    1.3059 H   0  0  0  0  0  0  0  0  0  0  0  0
   -0.6608   -0.2727    1.4323 H   0  0  0  0  0  0  0  0  0  0  0  0
    1.0281   -0.2828    1.9942 H   0  0  0  0  0  0  0  0  0  0  0  0
    0.0725    0.0113   -0.8886 H   0  0  0  0  0  0  0  0  0  0  0  0
    2.9085   -0.0705    0.2339 H   0  0  0  0  0  0  0  0  0  0  0  0
    2.4487    0.0852   -1.4786 H   0  0  0  0  0  0  0  0  0  0  0  0
    2.0886    1.4026   -0.3371 H   0  0  0  0  0  0  0  0  0  0  0  0
   -1.3379   -1.1381   -1.5953 H   0  0  0  0  0  0  0  0  0  0  0  0
   -0.0016   -1.1405   -2.7712 H   0  0  0  0  0  0  0  0  0  0  0  0
   -1.5329   -4.2458   -1.4764 H   0  0  0  0  0  0  0  0  0  0  0  0
   -2.8137   -3.0091   -1.4662 H   0  0  0  0  0  0  0  0  0  0  0  0
   -3.5750   -5.2379   -2.3824 H   0  0  0  0  0  0  0  0  0  0  0  0
   -3.7526   -3.8969   -3.5447 H   0  0  0  0  0  0  0  0  0  0  0  0
   -5.0908   -7.2702   -4.0469 H   0  0  0  0  0  0  0  0  0  0  0  0
   -6.7384   -7.7141   -5.8224 H   0  0  0  0  0  0  0  0  0  0  0  0
   -6.0079   -7.8709   -8.1685 H   0  0  0  0  0  0  0  0  0  0  0  0
   -1.9832   -7.1347   -6.9648 H   0  0  0  0  0  0  0  0  0  0  0  0
   -0.5217   -5.0914   -5.2534 H   0  0  0  0  0  0  0  0  0  0  0  0
   -1.7379   -3.8003   -5.4392 H   0  0  0  0  0  0  0  0  0  0  0  0
    0.2325   -2.8630   -4.3306 H   0  0  0  0  0  0  0  0  0  0  0  0
    0.2082   -4.1623   -3.1136 H   0  0  0  0  0  0  0  0  0  0  0  0
    2.2214   -1.7414    1.4549 H   0  0  0  0  0  0  0  0  0  0  0  0
    0.5693   -4.2471    0.9078 H   0  0  0  0  0  0  0  0  0  0  0  0
    1.5450   -3.9109    2.3580 H   0  0  0  0  0  0  0  0  0  0  0  0
    0.0874   -2.9459    2.0226 H   0  0  0  0  0  0  0  0  0  0  0  0
    3.5256   -2.5022   -0.4834 H   0  0  0  0  0  0  0  0  0  0  0  0
    3.4824   -3.7851    0.7497 H   0  0  0  0  0  0  0  0  0  0  0  0
    2.4432   -3.8999   -0.6909 H   0  0  0  0  0  0  0  0  0  0  0  0
  1  2  1  0
  1 30  1  6
  1 31  1  0
  1 32  1  0
  2  3  1  0
  2  4  1  0
  2 33  1  6
  3 34  1  1
  3 35  1  0
  3 36  1  0
  4  5  1  0
  4 27  1  0
  5  6  2  0
  5  7  1  0
  7  8  1  0
  7 37  1  1
  7 38  1  0
  8 26  1  0
  8  9  1  0
  9 10  1  0
  9 39  1  1
  9 40  1  0
 10 11  1  0
 10 41  1  1
 10 42  1  0
 12 11  1  1
 11 25  1  0
 12 13  2  0
 12 14  2  0
 12 15  1  0
 15 24  2  0
 15 16  1  0
 16 17  2  0
 16 43  1  0
 17 18  1  0
 17 44  1  0
 18 19  2  0
 18 45  1  0
 19 20  1  0
 19 24  1  0
 20 21  1  6
 20 22  1  0
 20 23  1  0
 24 46  1  0
 25 26  1  0
 25 47  1  6
 25 48  1  0
 26 49  1  6
 26 50  1  0
 27 28  1  0
 27 29  1  0
 27 51  1  1
 28 52  1  6
 28 53  1  0
 28 54  1  0
 29 55  1  6
 29 56  1  0
 29 57  1  0
M  END
$$$$
