ZINC000408627058
     RDKit          3D

 47 48  0  0  0  0  0  0  0  0999 V2000
    0.0145    1.5850    0.0445 C   0  0  1  0  0  0  0  0  0  0  0  0
    0.0406    0.0552    0.0472 C   0  0  1  0  0  0  0  0  0  0  0  0
    0.7255   -0.4236   -1.1561 N   0  0  0  0  0  0  0  0  0  0  0  0
    2.1859   -0.5387   -1.1709 C   0  0  1  0  0  0  0  0  0  0  0  0
    2.5972   -1.8877   -0.5778 C   0  0  1  0  0  0  0  0  0  0  0  0
   -0.1512   -0.8349   -2.4995 S   0  0  1  0  0  0  0  0  0  0  0  0
    0.6545   -1.7388   -3.2431 O   0  0  0  0  0  0  0  0  0  0  0  0
   -1.4586   -1.1538   -2.0433 O   0  0  0  0  0  0  0  0  0  0  0  0
   -0.3084    0.6176   -3.4845 C   0  0  0  0  0  0  0  0  0  0  0  0
   -1.3798    1.4699   -3.2913 C   0  0  0  0  0  0  0  0  0  0  0  0
   -1.5053    2.6093   -4.0622 C   0  0  0  0  0  0  0  0  0  0  0  0
   -0.5549    2.8983   -5.0307 C   0  0  0  0  0  0  0  0  0  0  0  0
   -0.6759    4.0188   -5.7901 O   0  0  0  0  0  0  0  0  0  0  0  0
    0.3397    4.2526   -6.7679 C   0  0  1  0  0  0  0  0  0  0  0  0
    0.0402    5.5311   -7.5073 C   0  0  0  0  0  0  0  0  0  0  0  0
   -0.9459    6.1783   -7.2248 O   0  0  0  0  0  0  0  0  0  0  0  0
    0.8681    5.9553   -8.4825 N   0  0  0  0  0  0  0  0  0  0  0  0
    0.5420    7.0921   -9.2327 C   0  0  0  0  0  0  0  0  0  0  0  0
   -0.1236    8.1527   -8.6345 C   0  0  0  0  0  0  0  0  0  0  0  0
   -0.4437    9.2733   -9.3769 C   0  0  0  0  0  0  0  0  0  0  0  0
   -0.1025    9.3395  -10.7149 C   0  0  0  0  0  0  0  0  0  0  0  0
    0.5609    8.2851  -11.3158 C   0  0  0  0  0  0  0  0  0  0  0  0
    0.8895    7.1631  -10.5776 C   0  0  0  0  0  0  0  0  0  0  0  0
    1.5379    6.1332  -11.1642 F   0  0  0  0  0  0  0  0  0  0  0  0
    0.5194    2.0417   -5.2223 C   0  0  0  0  0  0  0  0  0  0  0  0
    0.6430    0.9061   -4.4455 C   0  0  0  0  0  0  0  0  0  0  0  0
    1.0357    1.9658    0.0318 H   0  0  0  0  0  0  0  0  0  0  0  0
   -0.5158    1.9378   -0.8401 H   0  0  0  0  0  0  0  0  0  0  0  0
   -0.4951    1.9413    0.9397 H   0  0  0  0  0  0  0  0  0  0  0  0
    0.5709   -0.2975    0.9318 H   0  0  0  0  0  0  0  0  0  0  0  0
   -0.9806   -0.3256    0.0598 H   0  0  0  0  0  0  0  0  0  0  0  0
    2.5455   -0.4683   -2.1975 H   0  0  0  0  0  0  0  0  0  0  0  0
    2.6198    0.2664   -0.5779 H   0  0  0  0  0  0  0  0  0  0  0  0
    2.1633   -2.6928   -1.1708 H   0  0  0  0  0  0  0  0  0  0  0  0
    3.6838   -1.9733   -0.5888 H   0  0  0  0  0  0  0  0  0  0  0  0
    2.2376   -1.9581    0.4488 H   0  0  0  0  0  0  0  0  0  0  0  0
   -2.1194    1.2445   -2.5372 H   0  0  0  0  0  0  0  0  0  0  0  0
   -2.3428    3.2743   -3.9114 H   0  0  0  0  0  0  0  0  0  0  0  0
    1.3074    4.3370   -6.2735 H   0  0  0  0  0  0  0  0  0  0  0  0
    0.3632    3.4219   -7.4732 H   0  0  0  0  0  0  0  0  0  0  0  0
    1.6899    5.4733   -8.6649 H   0  0  0  0  0  0  0  0  0  0  0  0
   -0.3915    8.1022   -7.5894 H   0  0  0  0  0  0  0  0  0  0  0  0
   -0.9617   10.0986   -8.9112 H   0  0  0  0  0  0  0  0  0  0  0  0
   -0.3548   10.2165  -11.2924 H   0  0  0  0  0  0  0  0  0  0  0  0
    0.8261    8.3399  -12.3613 H   0  0  0  0  0  0  0  0  0  0  0  0
    1.2604    2.2643   -5.9758 H   0  0  0  0  0  0  0  0  0  0  0  0
    1.4794    0.2391   -4.5940 H   0  0  0  0  0  0  0  0  0  0  0  0
  1  2  1  0
  1 27  1  6
  1 28  1  0
  1 29  1  0
  2  3  1  0
  2 30  1  1
  2 31  1  0
  3  4  1  0
  6  3  1  1
  4  5  1  0
  4 32  1  6
  4 33  1  0
  5 34  1  6
  5 35  1  0
  5 36  1  0
  6  7  2  0
  6  8  2  0
  6  9  1  0
  9 26  2  0
  9 10  1  0
 10 11  2  0
 10 37  1  0
 11 12  1  0
 11 38  1  0
 12 13  1  0
 12 25  2  0
 13 14  1  0
 14 15  1  0
 14 39  1  1
 14 40  1  0
 15 16  2  0
 15 17  1  0
 17 18  1  0
 17 41  1  0
 18 23  2  0
 18 19  1  0
 19 20  2  0
 19 42  1  0
 20 21  1  0
 20 43  1  0
 21 22  2  0
 21 44  1  0
 22 23  1  0
 22 45  1  0
 23 24  1  0
 25 26  1  0
 25 46  1  0
 26 47  1  0
M  END
$$$$
