ZINC000016651188
     RDKit          3D

 49 50  0  0  0  0  0  0  0  0999 V2000
   -0.0107    1.5536   -0.0510 C   0  0  1  0  0  0  0  0  0  0  0  0
    0.0096    0.0239   -0.0714 C   0  0  1  0  0  0  0  0  0  0  0  0
    0.7145   -0.4709    1.1137 N   0  0  0  0  0  0  0  0  0  0  0  0
   -0.0060   -0.6373    2.3784 C   0  0  1  0  0  0  0  0  0  0  0  0
   -0.6938   -2.0038    2.3975 C   0  0  1  0  0  0  0  0  0  0  0  0
    2.3258   -0.8422    1.0237 S   0  0  1  0  0  0  0  0  0  0  0  0
    2.5830   -1.7691    2.0697 O   0  0  0  0  0  0  0  0  0  0  0  0
    2.5984   -1.1178   -0.3434 O   0  0  0  0  0  0  0  0  0  0  0  0
    3.2215    0.6213    1.4244 C   0  0  0  0  0  0  0  0  0  0  0  0
    3.5753    1.5101    0.4266 C   0  0  0  0  0  0  0  0  0  0  0  0
    4.2779    2.6583    0.7409 C   0  0  0  0  0  0  0  0  0  0  0  0
    4.6265    2.9179    2.0532 C   0  0  0  0  0  0  0  0  0  0  0  0
    5.3929    4.1693    2.3958 C   0  0  1  0  0  0  0  0  0  0  0  0
    4.4103    5.3016    2.7014 C   0  0  1  0  0  0  0  0  0  0  0  0
    5.1768    6.5531    3.0440 C   0  0  0  0  0  0  0  0  0  0  0  0
    6.3896    6.5406    3.0438 O   0  0  0  0  0  0  0  0  0  0  0  0
    4.5146    7.6861    3.3507 N   0  0  0  0  0  0  0  0  0  0  0  0
    5.2234    8.8227    3.7595 C   0  0  0  0  0  0  0  0  0  0  0  0
    6.4726    9.0947    3.2198 C   0  0  0  0  0  0  0  0  0  0  0  0
    7.1696   10.2171    3.6247 C   0  0  0  0  0  0  0  0  0  0  0  0
    6.6248   11.0693    4.5670 C   0  0  0  0  0  0  0  0  0  0  0  0
    5.3801   10.8027    5.1079 C   0  0  0  0  0  0  0  0  0  0  0  0
    4.6746    9.6845    4.7032 C   0  0  0  0  0  0  0  0  0  0  0  0
    3.4586    9.4240    5.2312 F   0  0  0  0  0  0  0  0  0  0  0  0
    4.2715    2.0297    3.0512 C   0  0  0  0  0  0  0  0  0  0  0  0
    3.5655    0.8834    2.7374 C   0  0  0  0  0  0  0  0  0  0  0  0
    1.0120    1.9306   -0.0528 H   0  0  0  0  0  0  0  0  0  0  0  0
   -0.5352    1.9218   -0.9327 H   0  0  0  0  0  0  0  0  0  0  0  0
   -0.5234    1.8983    0.8470 H   0  0  0  0  0  0  0  0  0  0  0  0
   -1.0132   -0.3531   -0.0696 H   0  0  0  0  0  0  0  0  0  0  0  0
    0.5223   -0.3207   -0.9694 H   0  0  0  0  0  0  0  0  0  0  0  0
    0.6974   -0.5729    3.2085 H   0  0  0  0  0  0  0  0  0  0  0  0
   -0.7555    0.1481    2.4755 H   0  0  0  0  0  0  0  0  0  0  0  0
   -1.2299   -2.1276    3.3385 H   0  0  0  0  0  0  0  0  0  0  0  0
   -1.3973   -2.0682    1.5674 H   0  0  0  0  0  0  0  0  0  0  0  0
    0.0557   -2.7892    2.3004 H   0  0  0  0  0  0  0  0  0  0  0  0
    3.3030    1.3073   -0.5987 H   0  0  0  0  0  0  0  0  0  0  0  0
    4.5550    3.3524   -0.0388 H   0  0  0  0  0  0  0  0  0  0  0  0
    6.0179    3.9849    3.2696 H   0  0  0  0  0  0  0  0  0  0  0  0
    6.0224    4.4523    1.5521 H   0  0  0  0  0  0  0  0  0  0  0  0
    3.7854    5.4860    1.8276 H   0  0  0  0  0  0  0  0  0  0  0  0
    3.7809    5.0186    3.5451 H   0  0  0  0  0  0  0  0  0  0  0  0
    3.5470    7.7145    3.2883 H   0  0  0  0  0  0  0  0  0  0  0  0
    6.8999    8.4295    2.4841 H   0  0  0  0  0  0  0  0  0  0  0  0
    8.1417   10.4286    3.2046 H   0  0  0  0  0  0  0  0  0  0  0  0
    7.1725   11.9453    4.8817 H   0  0  0  0  0  0  0  0  0  0  0  0
    4.9572   11.4704    5.8439 H   0  0  0  0  0  0  0  0  0  0  0  0
    4.5435    2.2327    4.0765 H   0  0  0  0  0  0  0  0  0  0  0  0
    3.2882    0.1895    3.5171 H   0  0  0  0  0  0  0  0  0  0  0  0
  1  2  1  0
  1 27  1  1
  1 28  1  0
  1 29  1  0
  2  3  1  0
  2 30  1  6
  2 31  1  0
  3  4  1  0
  6  3  1  6
  4  5  1  0
  4 32  1  1
  4 33  1  0
  5 34  1  1
  5 35  1  0
  5 36  1  0
  6  7  2  0
  6  8  2  0
  6  9  1  0
  9 26  2  0
  9 10  1  0
 10 11  2  0
 10 37  1  0
 11 12  1  0
 11 38  1  0
 12 13  1  0
 12 25  2  0
 13 14  1  0
 13 39  1  1
 13 40  1  0
 14 15  1  0
 14 41  1  6
 14 42  1  0
 15 16  2  0
 15 17  1  0
 17 18  1  0
 17 43  1  0
 18 23  2  0
 18 19  1  0
 19 20  2  0
 19 44  1  0
 20 21  1  0
 20 45  1  0
 21 22  2  0
 21 46  1  0
 22 23  1  0
 22 47  1  0
 23 24  1  0
 25 26  1  0
 25 48  1  0
 26 49  1  0
M  END
$$$$
