ZINC000032770663
     RDKit          3D

 56 58  0  0  0  0  0  0  0  0999 V2000
   -0.0178    1.4608    0.0101 C   0  0  1  0  0  0  0  0  0  0  0  0
    0.0021   -0.0041    0.0020 N   0  0  0  0  0  0  0  0  0  0  0  0
    0.0241   -0.7433    1.2666 C   0  0  1  0  0  0  0  0  0  0  0  0
    1.2758   -0.3610    2.0591 C   0  0  1  0  0  0  0  0  0  0  0  0
    1.2989   -1.1331    3.3798 C   0  0  1  0  0  0  0  0  0  0  0  0
    0.0524   -0.7848    4.1959 C   0  0  1  0  0  0  0  0  0  0  0  0
   -1.1993   -1.1671    3.4035 C   0  0  1  0  0  0  0  0  0  0  0  0
   -1.2223   -0.3950    2.0828 C   0  0  1  0  0  0  0  0  0  0  0  0
   -0.0004   -0.8243   -1.4366 S   0  0  1  0  0  0  0  0  0  0  0  0
   -0.5247   -2.1160   -1.1611 O   0  0  0  0  0  0  0  0  0  0  0  0
   -0.5660    0.0551   -2.3989 O   0  0  0  0  0  0  0  0  0  0  0  0
    1.5805   -1.0455   -1.8774 N   0  0  0  0  0  0  0  0  0  0  0  0
    2.2754   -0.0437   -2.6979 C   0  0  1  0  0  0  0  0  0  0  0  0
    3.5494    0.3926   -1.9639 C   0  0  1  0  0  0  0  0  0  0  0  0
    4.2827   -0.8089   -1.5412 N   0  0  0  0  0  0  0  0  0  0  0  0
    5.8638   -1.0296   -1.9811 S   0  0  1  0  0  0  0  0  0  0  0  0
    6.1042   -2.4290   -1.9255 O   0  0  0  0  0  0  0  0  0  0  0  0
    6.0665   -0.2522   -3.1532 O   0  0  0  0  0  0  0  0  0  0  0  0
    6.8614   -0.3031   -0.7235 C   0  0  0  0  0  0  0  0  0  0  0  0
    7.2300    1.0261   -0.8153 C   0  0  0  0  0  0  0  0  0  0  0  0
    8.0126    1.5960    0.1714 C   0  0  0  0  0  0  0  0  0  0  0  0
    8.4263    0.8370    1.2501 C   0  0  0  0  0  0  0  0  0  0  0  0
    9.2799    1.4583    2.3255 C   0  0  1  0  0  0  0  0  0  0  0  0
    8.4573    1.9985    3.3198 F   0  0  0  0  0  0  0  0  0  0  0  0
   10.1086    0.4804    2.8861 F   0  0  0  0  0  0  0  0  0  0  0  0
   10.0662    2.4726    1.7688 F   0  0  0  0  0  0  0  0  0  0  0  0
    8.0566   -0.4918    1.3426 C   0  0  0  0  0  0  0  0  0  0  0  0
    7.2708   -1.0607    0.3579 C   0  0  0  0  0  0  0  0  0  0  0  0
    3.5877   -1.8107   -0.7207 C   0  0  1  0  0  0  0  0  0  0  0  0
    2.3154   -2.2443   -1.4501 C   0  0  1  0  0  0  0  0  0  0  0  0
    1.0048    1.8381    0.0023 H   0  0  0  0  0  0  0  0  0  0  0  0
   -0.5450    1.8219   -0.8730 H   0  0  0  0  0  0  0  0  0  0  0  0
   -0.5280    1.8123    0.9069 H   0  0  0  0  0  0  0  0  0  0  0  0
    0.0368   -1.8138    1.0616 H   0  0  0  0  0  0  0  0  0  0  0  0
    2.1638   -0.6091    1.4777 H   0  0  0  0  0  0  0  0  0  0  0  0
    1.2632    0.7094    2.2641 H   0  0  0  0  0  0  0  0  0  0  0  0
    1.3115   -2.2035    3.1748 H   0  0  0  0  0  0  0  0  0  0  0  0
    2.1906   -0.8607    3.9444 H   0  0  0  0  0  0  0  0  0  0  0  0
    0.0688   -1.3348    5.1369 H   0  0  0  0  0  0  0  0  0  0  0  0
    0.0398    0.2857    4.4010 H   0  0  0  0  0  0  0  0  0  0  0  0
   -1.1866   -2.2375    3.1984 H   0  0  0  0  0  0  0  0  0  0  0  0
   -2.0872   -0.9190    3.9849 H   0  0  0  0  0  0  0  0  0  0  0  0
   -1.2349    0.6754    2.2878 H   0  0  0  0  0  0  0  0  0  0  0  0
   -2.1140   -0.6674    1.5182 H   0  0  0  0  0  0  0  0  0  0  0  0
    2.5394   -0.4793   -3.6615 H   0  0  0  0  0  0  0  0  0  0  0  0
    1.6267    0.8191   -2.8491 H   0  0  0  0  0  0  0  0  0  0  0  0
    4.1729    0.9849   -2.6336 H   0  0  0  0  0  0  0  0  0  0  0  0
    3.2827    0.9851   -1.0887 H   0  0  0  0  0  0  0  0  0  0  0  0
    6.9068    1.6191   -1.6581 H   0  0  0  0  0  0  0  0  0  0  0  0
    8.3011    2.6343    0.0993 H   0  0  0  0  0  0  0  0  0  0  0  0
    8.3795   -1.0847    2.1856 H   0  0  0  0  0  0  0  0  0  0  0  0
    6.9819   -2.0989    0.4302 H   0  0  0  0  0  0  0  0  0  0  0  0
    4.2364   -2.6735   -0.5695 H   0  0  0  0  0  0  0  0  0  0  0  0
    3.3237   -1.3751    0.2429 H   0  0  0  0  0  0  0  0  0  0  0  0
    1.6930   -2.8365   -0.7792 H   0  0  0  0  0  0  0  0  0  0  0  0
    2.5797   -2.8366   -2.3261 H   0  0  0  0  0  0  0  0  0  0  0  0
  1  2  1  0
  1 31  1  6
  1 32  1  0
  1 33  1  0
  2  3  1  0
  9  2  1  1
  3  8  1  0
  3  4  1  0
  3 34  1  6
  4  5  1  0
  4 35  1  6
  4 36  1  0
  5  6  1  0
  5 37  1  6
  5 38  1  0
  6  7  1  0
  6 39  1  1
  6 40  1  0
  7  8  1  0
  7 41  1  6
  7 42  1  0
  8 43  1  1
  8 44  1  0
  9 10  2  0
  9 11  2  0
  9 12  1  0
 12 30  1  0
 12 13  1  0
 13 14  1  0
 13 45  1  6
 13 46  1  0
 14 15  1  0
 14 47  1  6
 14 48  1  0
 16 15  1  1
 15 29  1  0
 16 17  2  0
 16 18  2  0
 16 19  1  0
 19 28  2  0
 19 20  1  0
 20 21  2  0
 20 49  1  0
 21 22  1  0
 21 50  1  0
 22 23  1  0
 22 27  2  0
 23 24  1  1
 23 25  1  0
 23 26  1  0
 27 28  1  0
 27 51  1  0
 28 52  1  0
 29 30  1  0
 29 53  1  1
 29 54  1  0
 30 55  1  1
 30 56  1  0
M  END
$$$$
