ZINC000222662084
     RDKit          3D

 51 52  0  0  1  0  0  0  0  0999 V2000
   -0.0173    1.4248    0.0099 C   0  0  1  0  0  0  0  0  0  0  0  0
    0.0021   -0.0041    0.0020 O   0  0  0  0  0  0  0  0  0  0  0  0
   -1.2003   -0.6375    0.0101 C   0  0  0  0  0  0  0  0  0  0  0  0
   -2.3744    0.1010    0.0195 C   0  0  0  0  0  0  0  0  0  0  0  0
   -3.5956   -0.5454    0.0272 C   0  0  0  0  0  0  0  0  0  0  0  0
   -3.6478   -1.9268    0.0260 C   0  0  0  0  0  0  0  0  0  0  0  0
   -5.2067   -2.7480    0.0365 S   0  0  1  0  0  0  0  0  0  0  0  0
   -4.9753   -4.0413    0.5778 O   0  0  0  0  0  0  0  0  0  0  0  0
   -6.1402   -1.8299    0.5888 O   0  0  0  0  0  0  0  0  0  0  0  0
   -5.6519   -2.9747   -1.5424 N   0  0  0  0  0  0  0  0  0  0  0  0
   -5.2576   -4.1975   -2.2463 C   0  0  1  0  0  0  0  0  0  0  0  0
   -6.4401   -1.9525   -2.2352 C   0  0  1  0  0  0  0  0  0  0  0  0
   -2.4787   -2.6653    0.0162 C   0  0  0  0  0  0  0  0  0  0  0  0
   -1.2554   -2.0239    0.0032 C   0  0  0  0  0  0  0  0  0  0  0  0
    0.0183   -2.8292   -0.0080 C   0  0  1  0  0  0  0  0  0  0  0  0
    0.5306   -2.9932    1.4243 C   0  0  1  0  0  0  0  0  0  0  0  0
    1.8043   -3.7985    1.4131 C   0  0  0  0  0  0  0  0  0  0  0  0
    2.2577   -4.2017    0.3630 O   0  0  0  0  0  0  0  0  0  0  0  0
    2.4396   -4.0708    2.5701 N   0  0  0  0  0  0  0  0  0  0  0  0
    3.6779   -4.8537    2.5593 C   0  0  1  0  0  0  0  0  0  0  0  0
    4.1902   -5.0176    3.9916 C   0  0  2  0  0  0  0  0  0  0  0  0
    4.2910   -4.0397    4.4623 H   0  0  0  0  0  0  0  0  0  0  0  0
    5.5563   -5.7366    3.9801 C   0  0  1  0  0  0  0  0  0  0  0  0
    5.4467   -6.6724    5.2146 C   0  0  1  0  0  0  0  0  0  0  0  0
    3.9390   -7.0283    5.1809 C   0  0  1  0  0  0  0  0  0  0  0  0
    3.2792   -5.8274    4.7438 O   0  0  0  0  0  0  0  0  0  0  0  0
    1.0053    1.8021    0.0021 H   0  0  0  0  0  0  0  0  0  0  0  0
   -0.5445    1.7859   -0.8732 H   0  0  0  0  0  0  0  0  0  0  0  0
   -0.5275    1.7763    0.9067 H   0  0  0  0  0  0  0  0  0  0  0  0
   -2.3342    1.1802    0.0211 H   0  0  0  0  0  0  0  0  0  0  0  0
   -4.5101    0.0291    0.0345 H   0  0  0  0  0  0  0  0  0  0  0  0
   -6.0260   -4.9586   -2.1109 H   0  0  0  0  0  0  0  0  0  0  0  0
   -5.1412   -3.9837   -3.3087 H   0  0  0  0  0  0  0  0  0  0  0  0
   -4.3120   -4.5600   -1.8430 H   0  0  0  0  0  0  0  0  0  0  0  0
   -5.7694   -1.2411   -2.7170 H   0  0  0  0  0  0  0  0  0  0  0  0
   -7.0686   -2.4271   -2.9888 H   0  0  0  0  0  0  0  0  0  0  0  0
   -7.0689   -1.4287   -1.5152 H   0  0  0  0  0  0  0  0  0  0  0  0
   -2.5221   -3.7444    0.0150 H   0  0  0  0  0  0  0  0  0  0  0  0
   -0.1766   -3.8113   -0.4388 H   0  0  0  0  0  0  0  0  0  0  0  0
    0.7694   -2.3129   -0.6057 H   0  0  0  0  0  0  0  0  0  0  0  0
    0.7255   -2.0111    1.8551 H   0  0  0  0  0  0  0  0  0  0  0  0
   -0.2205   -3.5096    2.0220 H   0  0  0  0  0  0  0  0  0  0  0  0
    2.0771   -3.7483    3.4101 H   0  0  0  0  0  0  0  0  0  0  0  0
    3.4830   -5.8358    2.1285 H   0  0  0  0  0  0  0  0  0  0  0  0
    4.4290   -4.3373    1.9616 H   0  0  0  0  0  0  0  0  0  0  0  0
    5.6826   -6.3149    3.0649 H   0  0  0  0  0  0  0  0  0  0  0  0
    6.3711   -5.0234    4.1051 H   0  0  0  0  0  0  0  0  0  0  0  0
    6.0633   -7.5624    5.0890 H   0  0  0  0  0  0  0  0  0  0  0  0
    5.7052   -6.1441    6.1323 H   0  0  0  0  0  0  0  0  0  0  0  0
    3.7574   -7.8389    4.4752 H   0  0  0  0  0  0  0  0  0  0  0  0
    3.5939   -7.3078    6.1763 H   0  0  0  0  0  0  0  0  0  0  0  0
  1  2  1  0
  1 27  1  6
  1 28  1  0
  1 29  1  0
  2  3  1  0
  3 14  2  0
  3  4  1  0
  4  5  2  0
  4 30  1  0
  5  6  1  0
  5 31  1  0
  6  7  1  0
  6 13  2  0
  7  8  2  0
  7  9  2  0
  7 10  1  6
 10 11  1  0
 10 12  1  0
 11 32  1  6
 11 33  1  0
 11 34  1  0
 12 35  1  6
 12 36  1  0
 12 37  1  0
 13 14  1  0
 13 38  1  0
 14 15  1  0
 15 16  1  0
 15 39  1  6
 15 40  1  0
 16 17  1  0
 16 41  1  1
 16 42  1  0
 17 18  2  0
 17 19  1  0
 19 20  1  0
 19 43  1  0
 20 21  1  0
 20 44  1  6
 20 45  1  0
 21 22  1  1
 21 26  1  0
 21 23  1  0
 23 24  1  0
 23 46  1  6
 23 47  1  0
 24 25  1  0
 24 48  1  6
 24 49  1  0
 25 26  1  0
 25 50  1  6
 25 51  1  0
M  END
$$$$
