ZINC000016301532
     RDKit          3D

 50 52  0  0  0  0  0  0  0  0999 V2000
    0.0021   -0.0041    0.0020 O   0  0  0  0  0  0  0  0  0  0  0  0
   -0.0144    1.2086    0.0087 C   0  0  0  0  0  0  0  0  0  0  0  0
    1.1435    1.8983    0.0013 N   0  0  0  0  0  0  0  0  0  0  0  0
    2.4220    1.1832   -0.0147 C   0  0  1  0  0  0  0  0  0  0  0  0
    3.5540    2.1779   -0.0202 C   0  0  0  0  0  0  0  0  0  0  0  0
    4.0580    2.6449   -1.2197 C   0  0  0  0  0  0  0  0  0  0  0  0
    5.0964    3.5574   -1.2247 C   0  0  0  0  0  0  0  0  0  0  0  0
    5.6304    4.0033   -0.0302 C   0  0  0  0  0  0  0  0  0  0  0  0
    6.7628    4.9977   -0.0357 C   0  0  1  0  0  0  0  0  0  0  0  0
    6.2430    6.2964   -0.0182 F   0  0  0  0  0  0  0  0  0  0  0  0
    7.5623    4.8002    1.0952 F   0  0  0  0  0  0  0  0  0  0  0  0
    7.5342    4.8196   -1.1891 F   0  0  0  0  0  0  0  0  0  0  0  0
    5.1256    3.5374    1.1693 C   0  0  0  0  0  0  0  0  0  0  0  0
    4.0846    2.6278    1.1744 C   0  0  0  0  0  0  0  0  0  0  0  0
   -1.3296    1.9443    0.0189 C   0  0  1  0  0  0  0  0  0  0  0  0
   -1.4275    2.8309   -1.2246 C   0  0  1  0  0  0  0  0  0  0  0  0
   -2.7501    3.6032   -1.1933 C   0  0  1  0  0  0  0  0  0  0  0  0
   -3.8541    2.6447   -1.0472 N   0  0  0  0  0  0  0  0  0  0  0  0
   -5.1196    2.6461   -2.1152 S   0  0  1  0  0  0  0  0  0  0  0  0
   -6.2181    2.0530   -1.4364 O   0  0  0  0  0  0  0  0  0  0  0  0
   -5.1667    3.9493   -2.6799 O   0  0  0  0  0  0  0  0  0  0  0  0
   -4.6954    1.5501   -3.4280 C   0  0  0  0  0  0  0  0  0  0  0  0
   -4.0204    2.0278   -4.5358 C   0  0  0  0  0  0  0  0  0  0  0  0
   -3.6871    1.1691   -5.5660 C   0  0  0  0  0  0  0  0  0  0  0  0
   -4.0293   -0.1703   -5.4882 C   0  0  0  0  0  0  0  0  0  0  0  0
   -3.7036   -1.0108   -6.4946 F   0  0  0  0  0  0  0  0  0  0  0  0
   -4.7050   -0.6477   -4.3780 C   0  0  0  0  0  0  0  0  0  0  0  0
   -5.0329    0.2119   -3.3468 C   0  0  0  0  0  0  0  0  0  0  0  0
   -3.8135    1.6846    0.0643 C   0  0  1  0  0  0  0  0  0  0  0  0
   -2.4790    0.9339    0.0189 C   0  0  1  0  0  0  0  0  0  0  0  0
    1.1304    2.8682    0.0067 H   0  0  0  0  0  0  0  0  0  0  0  0
    2.4967    0.5526    0.8712 H   0  0  0  0  0  0  0  0  0  0  0  0
    2.4797    0.5621   -0.9086 H   0  0  0  0  0  0  0  0  0  0  0  0
    3.6407    2.2965   -2.1529 H   0  0  0  0  0  0  0  0  0  0  0  0
    5.4906    3.9217   -2.1619 H   0  0  0  0  0  0  0  0  0  0  0  0
    5.5426    3.8860    2.1026 H   0  0  0  0  0  0  0  0  0  0  0  0
    3.6902    2.2638    2.1116 H   0  0  0  0  0  0  0  0  0  0  0  0
   -1.3916    2.5648    0.9129 H   0  0  0  0  0  0  0  0  0  0  0  0
   -0.5954    3.5349   -1.2360 H   0  0  0  0  0  0  0  0  0  0  0  0
   -1.3905    2.2088   -2.1189 H   0  0  0  0  0  0  0  0  0  0  0  0
   -2.7508    4.2928   -0.3492 H   0  0  0  0  0  0  0  0  0  0  0  0
   -2.8702    4.1600   -2.1227 H   0  0  0  0  0  0  0  0  0  0  0  0
   -3.7536    3.0726   -4.5962 H   0  0  0  0  0  0  0  0  0  0  0  0
   -3.1604    1.5427   -6.4317 H   0  0  0  0  0  0  0  0  0  0  0  0
   -4.9727   -1.6922   -4.3164 H   0  0  0  0  0  0  0  0  0  0  0  0
   -5.5597   -0.1603   -2.4806 H   0  0  0  0  0  0  0  0  0  0  0  0
   -3.9009    2.2177    1.0110 H   0  0  0  0  0  0  0  0  0  0  0  0
   -4.6353    0.9755   -0.0353 H   0  0  0  0  0  0  0  0  0  0  0  0
   -2.4321    0.3296   -0.8871 H   0  0  0  0  0  0  0  0  0  0  0  0
   -2.3953    0.2876    0.8926 H   0  0  0  0  0  0  0  0  0  0  0  0
  1  2  2  0
  2  3  1  0
  2 15  1  0
  3  4  1  0
  3 31  1  0
  4  5  1  0
  4 32  1  1
  4 33  1  0
  5 14  2  0
  5  6  1  0
  6  7  2  0
  6 34  1  0
  7  8  1  0
  7 35  1  0
  8  9  1  0
  8 13  2  0
  9 10  1  1
  9 11  1  0
  9 12  1  0
 13 14  1  0
 13 36  1  0
 14 37  1  0
 15 30  1  0
 15 16  1  0
 15 38  1  1
 16 17  1  0
 16 39  1  6
 16 40  1  0
 17 18  1  0
 17 41  1  1
 17 42  1  0
 19 18  1  1
 18 29  1  0
 19 20  2  0
 19 21  2  0
 19 22  1  0
 22 28  2  0
 22 23  1  0
 23 24  2  0
 23 43  1  0
 24 25  1  0
 24 44  1  0
 25 26  1  0
 25 27  2  0
 27 28  1  0
 27 45  1  0
 28 46  1  0
 29 30  1  0
 29 47  1  1
 29 48  1  0
 30 49  1  6
 30 50  1  0
M  END
$$$$
