ZINC000084579080
     RDKit          3D

 36 38  0  0  1  0  0  0  0  0999 V2000
    0.0021   -0.0041    0.0020 O   0  0  0  0  0  0  0  0  0  0  0  0
   -0.0145    1.2150    0.0087 C   0  0  0  0  0  0  0  0  0  0  0  0
    1.0330    1.8389    0.0021 O   0  0  0  0  0  0  0  0  0  0  0  0
   -1.3296    1.9507    0.0190 C   0  0  2  0  0  0  0  0  0  0  0  0
   -1.9197    1.6855   -0.8583 H   0  0  0  0  0  0  0  0  0  0  0  0
   -1.0945    3.4693    0.0682 C   0  0  1  0  0  0  0  0  0  0  0  0
   -1.7201    3.9145    1.3163 N   0  0  0  0  0  0  0  0  0  0  0  0
   -1.7522    5.4798    1.8558 S   0  0  1  0  0  0  0  0  0  0  0  0
   -1.9249    5.4151    3.2648 O   0  0  0  0  0  0  0  0  0  0  0  0
   -0.6570    6.1402    1.2365 O   0  0  0  0  0  0  0  0  0  0  0  0
   -3.2124    6.2244    1.2092 C   0  0  0  0  0  0  0  0  0  0  0  0
   -3.1792    6.8589   -0.0185 C   0  0  0  0  0  0  0  0  0  0  0  0
   -4.3248    7.4431   -0.5257 C   0  0  0  0  0  0  0  0  0  0  0  0
   -5.5036    7.3924    0.1945 C   0  0  0  0  0  0  0  0  0  0  0  0
   -6.7523    8.0297   -0.3583 C   0  0  1  0  0  0  0  0  0  0  0  0
   -7.4538    7.0930   -1.1249 F   0  0  0  0  0  0  0  0  0  0  0  0
   -7.5595    8.4666    0.6975 F   0  0  0  0  0  0  0  0  0  0  0  0
   -6.4029    9.1211   -1.1607 F   0  0  0  0  0  0  0  0  0  0  0  0
   -5.5371    6.7567    1.4215 C   0  0  0  0  0  0  0  0  0  0  0  0
   -4.3925    6.1692    1.9270 C   0  0  0  0  0  0  0  0  0  0  0  0
   -2.2844    2.8266    1.9843 C   0  0  0  0  0  0  0  0  0  0  0  0
   -2.9733    2.7942    3.1985 C   0  0  0  0  0  0  0  0  0  0  0  0
   -3.4572    1.6010    3.6916 C   0  0  0  0  0  0  0  0  0  0  0  0
   -3.2643    0.4272    2.9870 C   0  0  0  0  0  0  0  0  0  0  0  0
   -2.5831    0.4511    1.7839 C   0  0  0  0  0  0  0  0  0  0  0  0
   -2.0974    1.6414    1.2845 C   0  0  0  0  0  0  0  0  0  0  0  0
   -0.0264    3.6863    0.0822 H   0  0  0  0  0  0  0  0  0  0  0  0
   -1.5683    3.9532   -0.7858 H   0  0  0  0  0  0  0  0  0  0  0  0
   -2.2582    6.8985   -0.5811 H   0  0  0  0  0  0  0  0  0  0  0  0
   -4.2987    7.9394   -1.4846 H   0  0  0  0  0  0  0  0  0  0  0  0
   -6.4582    6.7168    1.9840 H   0  0  0  0  0  0  0  0  0  0  0  0
   -4.4186    5.6726    2.8857 H   0  0  0  0  0  0  0  0  0  0  0  0
   -3.1274    3.7076    3.7538 H   0  0  0  0  0  0  0  0  0  0  0  0
   -3.9891    1.5833    4.6313 H   0  0  0  0  0  0  0  0  0  0  0  0
   -3.6444   -0.5061    3.3754 H   0  0  0  0  0  0  0  0  0  0  0  0
   -2.4316   -0.4649    1.2323 H   0  0  0  0  0  0  0  0  0  0  0  0
  1  2  2  0
  2  3  1  0
  2  4  1  0
  4  5  1  6
  4 26  1  0
  4  6  1  0
  6  7  1  0
  6 27  1  1
  6 28  1  0
  8  7  1  6
  7 21  1  0
  8  9  2  0
  8 10  2  0
  8 11  1  0
 11 20  2  0
 11 12  1  0
 12 13  2  0
 12 29  1  0
 13 14  1  0
 13 30  1  0
 14 15  1  0
 14 19  2  0
 15 16  1  6
 15 17  1  0
 15 18  1  0
 19 20  1  0
 19 31  1  0
 20 32  1  0
 21 26  2  0
 21 22  1  0
 22 23  2  0
 22 33  1  0
 23 24  1  0
 23 34  1  0
 24 25  2  0
 24 35  1  0
 25 26  1  0
 25 36  1  0
M  END
$$$$
