ZINC000112511463
     RDKit          3D

 42 43  0  0  1  0  0  0  0  0999 V2000
   -0.0187    1.5258    0.0104 C   0  0  1  0  0  0  0  0  0  0  0  0
    0.0021   -0.0041    0.0020 C   0  0  1  0  0  0  0  0  0  0  0  0
   -1.0205   -0.3814    0.0098 H   0  0  0  0  0  0  0  0  0  0  0  0
    0.6897   -0.4778   -1.2066 N   0  0  1  0  0  0  0  0  0  0  0  0
    1.6363   -0.1286   -1.2138 H   0  0  0  0  0  0  0  0  0  0  0  0
    0.7033   -1.4867   -1.2121 H   0  0  0  0  0  0  0  0  0  0  0  0
    0.2017   -0.1436   -2.0240 H   0  0  0  0  0  0  0  0  0  0  0  0
    0.7421   -0.5109    1.2415 C   0  0  1  0  0  0  0  0  0  0  0  0
    1.7648   -0.1339    1.2342 H   0  0  0  0  0  0  0  0  0  0  0  0
    0.0253   -0.0190    2.5011 C   0  0  1  0  0  0  0  0  0  0  0  0
    0.7832   -0.4980    3.7413 C   0  0  1  0  0  0  0  0  0  0  0  0
    0.8027   -2.0296    3.7631 C   0  0  1  0  0  0  0  0  0  0  0  0
    1.3584   -2.5136    2.4920 N   0  0  0  0  0  0  0  0  0  0  0  0
    2.6335   -3.5702    2.4765 S   0  0  1  0  0  0  0  0  0  0  0  0
    3.2693   -3.4133    1.2154 O   0  0  0  0  0  0  0  0  0  0  0  0
    3.3102   -3.4007    3.7145 O   0  0  0  0  0  0  0  0  0  0  0  0
    1.9615   -5.1989    2.4956 C   0  0  0  0  0  0  0  0  0  0  0  0
    1.7122   -5.8296    3.7002 C   0  0  0  0  0  0  0  0  0  0  0  0
    1.1850   -7.1074    3.7152 C   0  0  0  0  0  0  0  0  0  0  0  0
    0.9067   -7.7543    2.5257 C   0  0  0  0  0  0  0  0  0  0  0  0
    0.3324   -9.1475    2.5421 C   0  0  1  0  0  0  0  0  0  0  0  0
   -1.0647   -9.0758    2.5591 F   0  0  0  0  0  0  0  0  0  0  0  0
    0.7501   -9.8375    1.3991 F   0  0  0  0  0  0  0  0  0  0  0  0
    0.7786   -9.8224    3.6834 F   0  0  0  0  0  0  0  0  0  0  0  0
    1.1547   -7.1230    1.3212 C   0  0  0  0  0  0  0  0  0  0  0  0
    1.6783   -5.8438    1.3062 C   0  0  0  0  0  0  0  0  0  0  0  0
    0.7618   -2.0427    1.2346 C   0  0  1  0  0  0  0  0  0  0  0  0
    1.0039    1.9031    0.0027 H   0  0  0  0  0  0  0  0  0  0  0  0
   -0.5459    1.8868   -0.8726 H   0  0  0  0  0  0  0  0  0  0  0  0
   -0.5289    1.8773    0.9072 H   0  0  0  0  0  0  0  0  0  0  0  0
   -0.0113    1.0703    2.4961 H   0  0  0  0  0  0  0  0  0  0  0  0
   -0.9896   -0.4162    2.5198 H   0  0  0  0  0  0  0  0  0  0  0  0
    1.8057   -0.1215    3.7108 H   0  0  0  0  0  0  0  0  0  0  0  0
    0.2854   -0.1277    4.6375 H   0  0  0  0  0  0  0  0  0  0  0  0
    1.4244   -2.3755    4.5889 H   0  0  0  0  0  0  0  0  0  0  0  0
   -0.2128   -2.4063    3.8849 H   0  0  0  0  0  0  0  0  0  0  0  0
    1.9296   -5.3242    4.6295 H   0  0  0  0  0  0  0  0  0  0  0  0
    0.9909   -7.6004    4.6563 H   0  0  0  0  0  0  0  0  0  0  0  0
    0.9369   -7.6283    0.3919 H   0  0  0  0  0  0  0  0  0  0  0  0
    1.8721   -5.3506    0.3651 H   0  0  0  0  0  0  0  0  0  0  0  0
   -0.2572   -2.4201    1.1498 H   0  0  0  0  0  0  0  0  0  0  0  0
    1.3563   -2.3974    0.3926 H   0  0  0  0  0  0  0  0  0  0  0  0
  1  2  1  0
  1 28  1  6
  1 29  1  0
  1 30  1  0
  2  3  1  1
  2  4  1  0
  2  8  1  0
  4  5  1  6
  4  6  1  0
  4  7  1  0
  8  9  1  6
  8 27  1  0
  8 10  1  0
 10 11  1  0
 10 31  1  6
 10 32  1  0
 11 12  1  0
 11 33  1  6
 11 34  1  0
 12 13  1  0
 12 35  1  1
 12 36  1  0
 14 13  1  6
 13 27  1  0
 14 15  2  0
 14 16  2  0
 14 17  1  0
 17 26  2  0
 17 18  1  0
 18 19  2  0
 18 37  1  0
 19 20  1  0
 19 38  1  0
 20 21  1  0
 20 25  2  0
 21 22  1  1
 21 23  1  0
 21 24  1  0
 25 26  1  0
 25 39  1  0
 26 40  1  0
 27 41  1  6
 27 42  1  0
M  CHG  1   4   1
M  END
$$$$
