ZINC000171382982
     RDKit          3D

 32 33  0  0  1  0  0  0  0  0999 V2000
   -0.0866   -0.1580    0.6721 O   0  0  0  0  0  0  0  0  0  0  0  0
   -0.0435    1.0605    0.6739 C   0  0  0  0  0  0  0  0  0  0  0  0
    1.0117    1.6329    0.8868 O   0  0  0  0  0  0  0  0  0  0  0  0
   -1.2934    1.8590    0.4068 C   0  0  2  0  0  0  0  0  0  0  0  0
   -2.1842    1.2518    0.5673 H   0  0  0  0  0  0  0  0  0  0  0  0
   -1.2771    2.4548   -1.0257 C   0  0  1  0  0  0  0  0  0  0  0  0
   -2.1735    3.7038   -0.8908 C   0  0  1  0  0  0  0  0  0  0  0  0
   -2.1897    4.0779    0.5309 N   0  0  0  0  0  0  0  0  0  0  0  0
   -3.0347    5.3422    1.1867 S   0  0  1  0  0  0  0  0  0  0  0  0
   -2.2775    5.7963    2.3001 O   0  0  0  0  0  0  0  0  0  0  0  0
   -3.4036    6.1835    0.1025 O   0  0  0  0  0  0  0  0  0  0  0  0
   -4.5338    4.6851    1.8391 C   0  0  0  0  0  0  0  0  0  0  0  0
   -4.7476    4.6753    3.2043 C   0  0  0  0  0  0  0  0  0  0  0  0
   -5.9239    4.1597    3.7164 C   0  0  0  0  0  0  0  0  0  0  0  0
   -6.1565    4.1494    5.2053 C   0  0  1  0  0  0  0  0  0  0  0  0
   -6.7857    5.3391    5.5873 F   0  0  0  0  0  0  0  0  0  0  0  0
   -6.9701    3.0624    5.5427 F   0  0  0  0  0  0  0  0  0  0  0  0
   -4.9297    4.0370    5.8682 F   0  0  0  0  0  0  0  0  0  0  0  0
   -6.8867    3.6541    2.8633 C   0  0  0  0  0  0  0  0  0  0  0  0
   -6.6739    3.6633    1.4974 C   0  0  0  0  0  0  0  0  0  0  0  0
   -5.4995    4.1839    0.9842 C   0  0  0  0  0  0  0  0  0  0  0  0
   -5.2315    4.1958   -0.7310 Cl  0  0  0  0  0  0  0  0  0  0  0  0
   -1.3304    3.1400    1.2770 C   0  0  1  0  0  0  0  0  0  0  0  0
   -0.2646    2.7363   -1.3149 H   0  0  0  0  0  0  0  0  0  0  0  0
   -1.7020    1.7507   -1.7411 H   0  0  0  0  0  0  0  0  0  0  0  0
   -1.7631    4.5206   -1.4844 H   0  0  0  0  0  0  0  0  0  0  0  0
   -3.1849    3.4720   -1.2246 H   0  0  0  0  0  0  0  0  0  0  0  0
   -3.9957    5.0702    3.8714 H   0  0  0  0  0  0  0  0  0  0  0  0
   -7.8053    3.2515    3.2638 H   0  0  0  0  0  0  0  0  0  0  0  0
   -7.4263    3.2683    0.8309 H   0  0  0  0  0  0  0  0  0  0  0  0
   -1.7632    2.9240    2.2538 H   0  0  0  0  0  0  0  0  0  0  0  0
   -0.3271    3.5514    1.3883 H   0  0  0  0  0  0  0  0  0  0  0  0
  1  2  2  0
  2  3  1  0
  2  4  1  0
  4  5  1  6
  4 23  1  0
  4  6  1  0
  6  7  1  0
  6 24  1  6
  6 25  1  0
  7  8  1  0
  7 26  1  6
  7 27  1  0
  9  8  1  6
  8 23  1  0
  9 10  2  0
  9 11  2  0
  9 12  1  0
 12 21  2  0
 12 13  1  0
 13 14  2  0
 13 28  1  0
 14 15  1  0
 14 19  1  0
 15 16  1  1
 15 17  1  0
 15 18  1  0
 19 20  2  0
 19 29  1  0
 20 21  1  0
 20 30  1  0
 21 22  1  0
 23 31  1  1
 23 32  1  0
M  END
$$$$
