ZINC000004785190
     RDKit          3D

 46 48  0  0  1  0  0  0  0  0999 V2000
   -0.3346   -3.4046    4.4549 C   0  0  1  0  0  0  0  0  0  0  0  0
   -0.8174   -1.9896    4.6438 C   0  0  0  0  0  0  0  0  0  0  0  0
   -1.7288   -1.5815    5.4788 N   0  0  0  0  0  0  0  0  0  0  0  0
   -1.9011   -0.3871    5.4012 O   0  0  0  0  0  0  0  0  0  0  0  0
   -1.1029    0.1668    4.4778 C   0  0  0  0  0  0  0  0  0  0  0  0
   -1.0343    1.6246    4.1018 C   0  0  1  0  0  0  0  0  0  0  0  0
   -0.3657   -0.8414    3.9535 C   0  0  0  0  0  0  0  0  0  0  0  0
    0.8638   -0.7457    2.6950 S   0  0  1  0  0  0  0  0  0  0  0  0
    0.8520   -1.9995    2.0264 O   0  0  0  0  0  0  0  0  0  0  0  0
    0.6600    0.4926    2.0283 O   0  0  0  0  0  0  0  0  0  0  0  0
    2.3323   -0.6331    3.4519 N   0  0  0  0  0  0  0  0  0  0  0  0
    3.1296   -1.7672    3.9534 C   0  0  1  0  0  0  0  0  0  0  0  0
    4.5879   -1.2452    3.9811 C   0  0  1  0  0  0  0  0  0  0  0  0
    4.3831    0.2279    4.4231 C   0  0  1  0  0  0  0  0  0  0  0  0
    3.0599    0.6140    3.7294 C   0  0  1  0  0  0  0  0  0  0  0  0
    2.4654    1.2450    4.3900 H   0  0  0  0  0  0  0  0  0  0  0  0
    3.3496    1.3468    2.4448 C   0  0  0  0  0  0  0  0  0  0  0  0
    3.4359    0.7326    1.4025 O   0  0  0  0  0  0  0  0  0  0  0  0
    3.5127    2.6846    2.4542 N   0  0  0  0  0  0  0  0  0  0  0  0
    3.6440    3.3819    1.2482 C   0  0  0  0  0  0  0  0  0  0  0  0
    2.9889    2.9320    0.1095 C   0  0  0  0  0  0  0  0  0  0  0  0
    3.1206    3.6226   -1.0795 C   0  0  0  0  0  0  0  0  0  0  0  0
    3.9041    4.7604   -1.1368 C   0  0  0  0  0  0  0  0  0  0  0  0
    4.5583    5.2108   -0.0045 C   0  0  0  0  0  0  0  0  0  0  0  0
    5.4112    6.4513   -0.0714 C   0  0  1  0  0  0  0  0  0  0  0  0
    5.3854    6.9654   -1.3723 F   0  0  0  0  0  0  0  0  0  0  0  0
    4.9124    7.4088    0.8183 F   0  0  0  0  0  0  0  0  0  0  0  0
    6.7277    6.1315    0.2776 F   0  0  0  0  0  0  0  0  0  0  0  0
    4.4254    4.5287    1.1888 C   0  0  0  0  0  0  0  0  0  0  0  0
    0.5575   -3.5679    5.0595 H   0  0  0  0  0  0  0  0  0  0  0  0
   -1.1155   -4.0993    4.7644 H   0  0  0  0  0  0  0  0  0  0  0  0
   -0.0967   -3.5701    3.4041 H   0  0  0  0  0  0  0  0  0  0  0  0
   -1.7472    2.1888    4.7031 H   0  0  0  0  0  0  0  0  0  0  0  0
   -0.0275    2.0000    4.2846 H   0  0  0  0  0  0  0  0  0  0  0  0
   -1.2787    1.7394    3.0458 H   0  0  0  0  0  0  0  0  0  0  0  0
    2.8066   -2.0436    4.9571 H   0  0  0  0  0  0  0  0  0  0  0  0
    3.0443   -2.6188    3.2785 H   0  0  0  0  0  0  0  0  0  0  0  0
    5.1850   -1.7926    4.7105 H   0  0  0  0  0  0  0  0  0  0  0  0
    5.0401   -1.2967    2.9907 H   0  0  0  0  0  0  0  0  0  0  0  0
    4.2887    0.2957    5.5069 H   0  0  0  0  0  0  0  0  0  0  0  0
    5.2003    0.8548    4.0662 H   0  0  0  0  0  0  0  0  0  0  0  0
    3.5391    3.1641    3.2970 H   0  0  0  0  0  0  0  0  0  0  0  0
    2.3773    2.0430    0.1534 H   0  0  0  0  0  0  0  0  0  0  0  0
    2.6113    3.2732   -1.9655 H   0  0  0  0  0  0  0  0  0  0  0  0
    4.0058    5.2983   -2.0677 H   0  0  0  0  0  0  0  0  0  0  0  0
    4.9365    4.8809    2.0726 H   0  0  0  0  0  0  0  0  0  0  0  0
  1  2  1  0
  1 30  1  1
  1 31  1  0
  1 32  1  0
  2  7  1  0
  2  3  2  0
  3  4  1  0
  4  5  1  0
  5  6  1  0
  5  7  2  0
  6 33  1  1
  6 34  1  0
  6 35  1  0
  7  8  1  0
  8  9  2  0
  8 10  2  0
  8 11  1  1
 11 15  1  0
 11 12  1  0
 12 13  1  0
 12 36  1  1
 12 37  1  0
 13 14  1  0
 13 38  1  1
 13 39  1  0
 14 15  1  0
 14 40  1  1
 14 41  1  0
 15 16  1  1
 15 17  1  0
 17 18  2  0
 17 19  1  0
 19 20  1  0
 19 42  1  0
 20 29  2  0
 20 21  1  0
 21 22  2  0
 21 43  1  0
 22 23  1  0
 22 44  1  0
 23 24  2  0
 23 45  1  0
 24 25  1  0
 24 29  1  0
 25 26  1  6
 25 27  1  0
 25 28  1  0
 29 46  1  0
M  END
$$$$
