ZINC000021886691
     RDKit          3D

 59 60  0  0  0  0  0  0  0  0999 V2000
   -0.0187    1.5258    0.0104 C   0  0  1  0  0  0  0  0  0  0  0  0
    0.0021   -0.0041    0.0020 C   0  0  1  0  0  0  0  0  0  0  0  0
   -1.3723   -0.5112    0.0124 N   0  0  0  0  0  0  0  0  0  0  0  0
   -2.1099   -0.6542   -1.2453 C   0  0  1  0  0  0  0  0  0  0  0  0
   -1.7727   -2.0031   -1.8836 C   0  0  1  0  0  0  0  0  0  0  0  0
   -2.0922   -0.9227    1.4458 S   0  0  1  0  0  0  0  0  0  0  0  0
   -3.1196   -1.8512    1.1269 O   0  0  0  0  0  0  0  0  0  0  0  0
   -1.0393   -1.2108    2.3555 O   0  0  0  0  0  0  0  0  0  0  0  0
   -2.8978    0.5199    2.0580 C   0  0  0  0  0  0  0  0  0  0  0  0
   -2.2139    1.3946    2.8822 C   0  0  0  0  0  0  0  0  0  0  0  0
   -2.8423    2.5262    3.3638 C   0  0  0  0  0  0  0  0  0  0  0  0
   -4.1628    2.7852    3.0193 C   0  0  0  0  0  0  0  0  0  0  0  0
   -4.8013    3.9290    3.5041 N   0  0  0  0  0  0  0  0  0  0  0  0
   -6.1940    4.2006    3.1398 C   0  0  1  0  0  0  0  0  0  0  0  0
   -6.6416    5.4851    3.7884 C   0  0  0  0  0  0  0  0  0  0  0  0
   -5.8730    6.1120    4.4863 O   0  0  0  0  0  0  0  0  0  0  0  0
   -7.8962    5.9372    3.5930 N   0  0  0  0  0  0  0  0  0  0  0  0
   -8.3313    7.1859    4.2235 C   0  0  1  0  0  0  0  0  0  0  0  0
   -9.7640    7.4653    3.8487 C   0  0  0  0  0  0  0  0  0  0  0  0
  -10.0489    8.2020    2.7146 C   0  0  0  0  0  0  0  0  0  0  0  0
  -11.3619    8.4614    2.3667 C   0  0  0  0  0  0  0  0  0  0  0  0
  -12.3950    7.9822    3.1552 C   0  0  0  0  0  0  0  0  0  0  0  0
  -13.6868    8.2360    2.8142 O   0  0  0  0  0  0  0  0  0  0  0  0
  -13.9061    9.0038    1.6291 C   0  0  1  0  0  0  0  0  0  0  0  0
  -12.1080    7.2398    4.2972 C   0  0  0  0  0  0  0  0  0  0  0  0
  -13.1188    6.7668    5.0743 O   0  0  0  0  0  0  0  0  0  0  0  0
  -12.7497    6.0129    6.2308 C   0  0  1  0  0  0  0  0  0  0  0  0
  -10.7907    6.9792    4.6372 C   0  0  0  0  0  0  0  0  0  0  0  0
   -4.8469    1.9044    2.1911 C   0  0  0  0  0  0  0  0  0  0  0  0
   -4.2107    0.7776    1.7085 C   0  0  0  0  0  0  0  0  0  0  0  0
    1.0039    1.9031    0.0027 H   0  0  0  0  0  0  0  0  0  0  0  0
   -0.5459    1.8868   -0.8726 H   0  0  0  0  0  0  0  0  0  0  0  0
   -0.5289    1.8773    0.9072 H   0  0  0  0  0  0  0  0  0  0  0  0
    0.5123   -0.3556   -0.8948 H   0  0  0  0  0  0  0  0  0  0  0  0
    0.5293   -0.3651    0.8851 H   0  0  0  0  0  0  0  0  0  0  0  0
   -3.1804   -0.6037   -1.0465 H   0  0  0  0  0  0  0  0  0  0  0  0
   -1.8283    0.1500   -1.9251 H   0  0  0  0  0  0  0  0  0  0  0  0
   -2.3215   -2.1096   -2.8194 H   0  0  0  0  0  0  0  0  0  0  0  0
   -0.7022   -2.0536   -2.0825 H   0  0  0  0  0  0  0  0  0  0  0  0
   -2.0544   -2.8073   -1.2038 H   0  0  0  0  0  0  0  0  0  0  0  0
   -1.1873    1.1925    3.1499 H   0  0  0  0  0  0  0  0  0  0  0  0
   -2.3077    3.2088    4.0077 H   0  0  0  0  0  0  0  0  0  0  0  0
   -4.3225    4.5435    4.0821 H   0  0  0  0  0  0  0  0  0  0  0  0
   -6.2749    4.2930    2.0567 H   0  0  0  0  0  0  0  0  0  0  0  0
   -6.8257    3.3811    3.4827 H   0  0  0  0  0  0  0  0  0  0  0  0
   -8.5109    5.4358    3.0348 H   0  0  0  0  0  0  0  0  0  0  0  0
   -8.2505    7.0935    5.3066 H   0  0  0  0  0  0  0  0  0  0  0  0
   -7.6996    8.0054    3.8807 H   0  0  0  0  0  0  0  0  0  0  0  0
   -9.2444    8.5762    2.0989 H   0  0  0  0  0  0  0  0  0  0  0  0
  -11.5818    9.0380    1.4803 H   0  0  0  0  0  0  0  0  0  0  0  0
  -14.9770    9.1330    1.4728 H   0  0  0  0  0  0  0  0  0  0  0  0
  -13.4341    9.9804    1.7364 H   0  0  0  0  0  0  0  0  0  0  0  0
  -13.4743    8.4836    0.7741 H   0  0  0  0  0  0  0  0  0  0  0  0
  -13.6484    5.6962    6.7602 H   0  0  0  0  0  0  0  0  0  0  0  0
  -12.1795    5.1354    5.9258 H   0  0  0  0  0  0  0  0  0  0  0  0
  -12.1397    6.6320    6.8886 H   0  0  0  0  0  0  0  0  0  0  0  0
  -10.5653    6.4034    5.5227 H   0  0  0  0  0  0  0  0  0  0  0  0
   -5.8738    2.1027    1.9217 H   0  0  0  0  0  0  0  0  0  0  0  0
   -4.7419    0.0924    1.0646 H   0  0  0  0  0  0  0  0  0  0  0  0
  1  2  1  0
  1 31  1  6
  1 32  1  0
  1 33  1  0
  2  3  1  0
  2 34  1  6
  2 35  1  0
  3  4  1  0
  6  3  1  6
  4  5  1  0
  4 36  1  1
  4 37  1  0
  5 38  1  6
  5 39  1  0
  5 40  1  0
  6  7  2  0
  6  8  2  0
  6  9  1  0
  9 30  2  0
  9 10  1  0
 10 11  2  0
 10 41  1  0
 11 12  1  0
 11 42  1  0
 12 13  1  0
 12 29  2  0
 13 14  1  0
 13 43  1  0
 14 15  1  0
 14 44  1  6
 14 45  1  0
 15 16  2  0
 15 17  1  0
 17 18  1  0
 17 46  1  0
 18 19  1  0
 18 47  1  1
 18 48  1  0
 19 28  2  0
 19 20  1  0
 20 21  2  0
 20 49  1  0
 21 22  1  0
 21 50  1  0
 22 23  1  0
 22 25  2  0
 23 24  1  0
 24 51  1  6
 24 52  1  0
 24 53  1  0
 25 26  1  0
 25 28  1  0
 26 27  1  0
 27 54  1  1
 27 55  1  0
 27 56  1  0
 28 57  1  0
 29 30  1  0
 29 58  1  0
 30 59  1  0
M  END
$$$$
