ZINC000223047573
     RDKit          3D

 49 50  0  0  0  0  0  0  0  0999 V2000
    1.0659    0.8143    0.1039 C   0  0  1  0  0  0  0  0  0  0  0  0
    0.2398   -0.3710    0.6076 C   0  0  1  0  0  0  0  0  0  0  0  0
   -0.4610    0.0093    1.8365 N   0  0  0  0  0  0  0  0  0  0  0  0
   -1.7526    0.6966    1.7605 C   0  0  1  0  0  0  0  0  0  0  0  0
   -2.8721   -0.3363    1.6159 C   0  0  1  0  0  0  0  0  0  0  0  0
    0.2068   -0.3376    3.3117 S   0  0  1  0  0  0  0  0  0  0  0  0
   -0.8686   -0.3764    4.2398 O   0  0  0  0  0  0  0  0  0  0  0  0
    1.0940   -1.4280    3.1041 O   0  0  0  0  0  0  0  0  0  0  0  0
    1.2080    1.0387    3.7676 C   0  0  0  0  0  0  0  0  0  0  0  0
    2.5394    1.0776    3.3977 C   0  0  0  0  0  0  0  0  0  0  0  0
    3.3249    2.1574    3.7553 C   0  0  0  0  0  0  0  0  0  0  0  0
    2.7790    3.1985    4.4826 C   0  0  0  0  0  0  0  0  0  0  0  0
    3.6355    4.3754    4.8730 C   0  0  1  0  0  0  0  0  0  0  0  0
    3.5659    5.4421    3.7784 C   0  0  1  0  0  0  0  0  0  0  0  0
    4.4224    6.6190    4.1687 C   0  0  0  0  0  0  0  0  0  0  0  0
    5.0288    6.6059    5.2191 O   0  0  0  0  0  0  0  0  0  0  0  0
    4.5146    7.6861    3.3507 N   0  0  0  0  0  0  0  0  0  0  0  0
    5.2241    8.8237    3.7599 C   0  0  0  0  0  0  0  0  0  0  0  0
    4.5760    9.8347    4.4597 C   0  0  0  0  0  0  0  0  0  0  0  0
    3.2608    9.7224    4.7472 F   0  0  0  0  0  0  0  0  0  0  0  0
    5.2797   10.9558    4.8618 C   0  0  0  0  0  0  0  0  0  0  0  0
    6.6258   11.0716    4.5680 C   0  0  0  0  0  0  0  0  0  0  0  0
    7.2740   10.0680    3.8720 C   0  0  0  0  0  0  0  0  0  0  0  0
    6.5787    8.9409    3.4719 C   0  0  0  0  0  0  0  0  0  0  0  0
    7.2130    7.9606    2.7923 F   0  0  0  0  0  0  0  0  0  0  0  0
    1.4473    3.1603    4.8514 C   0  0  0  0  0  0  0  0  0  0  0  0
    0.6608    2.0823    4.4904 C   0  0  0  0  0  0  0  0  0  0  0  0
    1.7935    1.0991    0.8638 H   0  0  0  0  0  0  0  0  0  0  0  0
    1.5873    0.5313   -0.8105 H   0  0  0  0  0  0  0  0  0  0  0  0
    0.4053    1.6568   -0.1005 H   0  0  0  0  0  0  0  0  0  0  0  0
   -0.4878   -0.6558   -0.1524 H   0  0  0  0  0  0  0  0  0  0  0  0
    0.9004   -1.2136    0.8119 H   0  0  0  0  0  0  0  0  0  0  0  0
   -1.9092    1.2773    2.6695 H   0  0  0  0  0  0  0  0  0  0  0  0
   -1.7594    1.3629    0.8979 H   0  0  0  0  0  0  0  0  0  0  0  0
   -2.8653   -1.0026    2.4785 H   0  0  0  0  0  0  0  0  0  0  0  0
   -3.8331    0.1750    1.5593 H   0  0  0  0  0  0  0  0  0  0  0  0
   -2.7155   -0.9170    0.7069 H   0  0  0  0  0  0  0  0  0  0  0  0
    2.9659    0.2642    2.8295 H   0  0  0  0  0  0  0  0  0  0  0  0
    4.3652    2.1874    3.4669 H   0  0  0  0  0  0  0  0  0  0  0  0
    3.2721    4.7937    5.8116 H   0  0  0  0  0  0  0  0  0  0  0  0
    4.6679    4.0483    4.9965 H   0  0  0  0  0  0  0  0  0  0  0  0
    3.9293    5.0238    2.8397 H   0  0  0  0  0  0  0  0  0  0  0  0
    2.5335    5.7692    3.6549 H   0  0  0  0  0  0  0  0  0  0  0  0
    4.0900    7.6670    2.4788 H   0  0  0  0  0  0  0  0  0  0  0  0
    4.7768   11.7418    5.4056 H   0  0  0  0  0  0  0  0  0  0  0  0
    7.1723   11.9484    4.8826 H   0  0  0  0  0  0  0  0  0  0  0  0
    8.3256   10.1621    3.6444 H   0  0  0  0  0  0  0  0  0  0  0  0
    1.0206    3.9738    5.4193 H   0  0  0  0  0  0  0  0  0  0  0  0
   -0.3797    2.0524    4.7785 H   0  0  0  0  0  0  0  0  0  0  0  0
  1  2  1  0
  1 28  1  1
  1 29  1  0
  1 30  1  0
  2  3  1  0
  2 31  1  6
  2 32  1  0
  3  4  1  0
  6  3  1  6
  4  5  1  0
  4 33  1  1
  4 34  1  0
  5 35  1  1
  5 36  1  0
  5 37  1  0
  6  7  2  0
  6  8  2  0
  6  9  1  0
  9 27  2  0
  9 10  1  0
 10 11  2  0
 10 38  1  0
 11 12  1  0
 11 39  1  0
 12 13  1  0
 12 26  2  0
 13 14  1  0
 13 40  1  1
 13 41  1  0
 14 15  1  0
 14 42  1  6
 14 43  1  0
 15 16  2  0
 15 17  1  0
 17 18  1  0
 17 44  1  0
 18 24  2  0
 18 19  1  0
 19 20  1  0
 19 21  2  0
 21 22  1  0
 21 45  1  0
 22 23  2  0
 22 46  1  0
 23 24  1  0
 23 47  1  0
 24 25  1  0
 26 27  1  0
 26 48  1  0
 27 49  1  0
M  END
$$$$
