ZINC000053895125
     RDKit          3D

 37 38  0  0  1  0  0  0  0  0999 V2000
   -0.0162    1.3436    0.0094 N   0  0  0  0  0  0  0  0  0  0  0  0
    0.0021   -0.0041    0.0020 C   0  0  0  0  0  0  0  0  0  0  0  0
    1.0605   -0.5961   -0.0113 O   0  0  0  0  0  0  0  0  0  0  0  0
   -1.2926   -0.7753    0.0102 C   0  0  1  0  0  0  0  0  0  0  0  0
   -1.8976   -0.5198   -0.8597 H   0  0  0  0  0  0  0  0  0  0  0  0
   -1.0218   -2.3021    0.0613 C   0  0  1  0  0  0  0  0  0  0  0  0
   -2.3171   -2.8256    0.7306 C   0  0  1  0  0  0  0  0  0  0  0  0
   -2.6678   -1.7986    1.7284 N   0  0  0  0  0  0  0  0  0  0  0  0
   -3.4104   -1.9998    2.8350 C   0  0  0  0  0  0  0  0  0  0  0  0
   -3.6366   -1.0775    3.5894 O   0  0  0  0  0  0  0  0  0  0  0  0
   -3.9596   -3.3707    3.1348 C   0  0  1  0  0  0  0  0  0  0  0  0
   -4.7069   -3.3287    4.3522 O   0  0  0  0  0  0  0  0  0  0  0  0
   -5.2738   -4.4915    4.7686 C   0  0  0  0  0  0  0  0  0  0  0  0
   -5.1092   -5.6504    4.0240 C   0  0  0  0  0  0  0  0  0  0  0  0
   -5.6861   -6.8313    4.4497 C   0  0  0  0  0  0  0  0  0  0  0  0
   -6.4272   -6.8587    5.6166 C   0  0  0  0  0  0  0  0  0  0  0  0
   -7.0558   -8.1481    6.0784 C   0  0  1  0  0  0  0  0  0  0  0  0
   -6.1603   -8.8329    6.9069 F   0  0  0  0  0  0  0  0  0  0  0  0
   -8.2275   -7.8674    6.7894 F   0  0  0  0  0  0  0  0  0  0  0  0
   -7.3631   -8.9412    4.9676 F   0  0  0  0  0  0  0  0  0  0  0  0
   -6.5923   -5.7051    6.3608 C   0  0  0  0  0  0  0  0  0  0  0  0
   -6.0131   -4.5229    5.9421 C   0  0  0  0  0  0  0  0  0  0  0  0
   -2.0749   -0.5149    1.3148 C   0  0  1  0  0  0  0  0  0  0  0  0
    0.8172    1.8399    0.0041 H   0  0  0  0  0  0  0  0  0  0  0  0
   -0.8627    1.8171    0.0160 H   0  0  0  0  0  0  0  0  0  0  0  0
   -0.9072   -2.7124   -0.9421 H   0  0  0  0  0  0  0  0  0  0  0  0
   -0.1482   -2.5237    0.6743 H   0  0  0  0  0  0  0  0  0  0  0  0
   -3.1126   -2.9242   -0.0080 H   0  0  0  0  0  0  0  0  0  0  0  0
   -2.1316   -3.7819    1.2196 H   0  0  0  0  0  0  0  0  0  0  0  0
   -4.6103   -3.6877    2.3198 H   0  0  0  0  0  0  0  0  0  0  0  0
   -3.1362   -4.0774    3.2382 H   0  0  0  0  0  0  0  0  0  0  0  0
   -4.5310   -5.6294    3.1121 H   0  0  0  0  0  0  0  0  0  0  0  0
   -5.5583   -7.7338    3.8704 H   0  0  0  0  0  0  0  0  0  0  0  0
   -7.1714   -5.7291    7.2721 H   0  0  0  0  0  0  0  0  0  0  0  0
   -6.1423   -3.6221    6.5237 H   0  0  0  0  0  0  0  0  0  0  0  0
   -1.3947   -0.1549    2.0867 H   0  0  0  0  0  0  0  0  0  0  0  0
   -2.8625    0.2181    1.1405 H   0  0  0  0  0  0  0  0  0  0  0  0
  1  2  1  0
  1 24  1  0
  1 25  1  0
  2  3  2  0
  2  4  1  0
  4  5  1  6
  4 23  1  0
  4  6  1  0
  6  7  1  0
  6 26  1  6
  6 27  1  0
  7  8  1  0
  7 28  1  6
  7 29  1  0
  8  9  1  0
  8 23  1  0
  9 10  2  0
  9 11  1  0
 11 12  1  0
 11 30  1  6
 11 31  1  0
 12 13  1  0
 13 22  2  0
 13 14  1  0
 14 15  2  0
 14 32  1  0
 15 16  1  0
 15 33  1  0
 16 17  1  0
 16 21  2  0
 17 18  1  1
 17 19  1  0
 17 20  1  0
 21 22  1  0
 21 34  1  0
 22 35  1  0
 23 36  1  1
 23 37  1  0
M  END
$$$$
