ZINC000002869076
     RDKit          3D

 46 48  0  0  1  0  0  0  0  0999 V2000
    1.2601   -0.7628   -0.2173 C   0  0  1  0  0  0  0  0  0  0  0  0
   -0.0542   -0.0692    0.0327 C   0  0  0  0  0  0  0  0  0  0  0  0
   -0.0695    1.0844    0.4134 O   0  0  0  0  0  0  0  0  0  0  0  0
   -1.2623   -0.7570   -0.1745 C   0  0  0  0  0  0  0  0  0  0  0  0
   -1.4113   -2.0624   -0.4892 C   0  0  0  0  0  0  0  0  0  0  0  0
   -0.2620   -3.0195   -0.6742 C   0  0  1  0  0  0  0  0  0  0  0  0
   -2.7192   -2.4125   -0.6196 N   0  0  0  0  0  0  0  0  0  0  0  0
   -3.1727   -3.7642   -0.9564 C   0  0  1  0  0  0  0  0  0  0  0  0
   -3.3783   -4.5551    0.3099 C   0  0  0  0  0  0  0  0  0  0  0  0
   -2.3335   -5.2833    0.8473 C   0  0  0  0  0  0  0  0  0  0  0  0
   -2.5221   -6.0088    2.0088 C   0  0  0  0  0  0  0  0  0  0  0  0
   -3.7555   -6.0056    2.6331 C   0  0  0  0  0  0  0  0  0  0  0  0
   -4.8001   -5.2766    2.0961 C   0  0  0  0  0  0  0  0  0  0  0  0
   -4.6102   -4.5477    0.9370 C   0  0  0  0  0  0  0  0  0  0  0  0
   -3.5494   -1.3748   -0.4039 C   0  0  0  0  0  0  0  0  0  0  0  0
   -4.7608   -1.3889   -0.4512 O   0  0  0  0  0  0  0  0  0  0  0  0
   -2.6640   -0.1868   -0.0840 C   0  0  1  0  0  0  0  0  0  0  0  0
   -2.9394    0.3136    1.2650 N   0  0  0  0  0  0  0  0  0  0  0  0
   -4.1653    0.7811    1.5732 C   0  0  0  0  0  0  0  0  0  0  0  0
   -5.0405    0.7875    0.7336 O   0  0  0  0  0  0  0  0  0  0  0  0
   -4.4486    1.2958    2.9609 C   0  0  1  0  0  0  0  0  0  0  0  0
   -4.6952    2.7973    3.1208 C   0  0  1  0  0  0  0  0  0  0  0  0
   -5.8596    1.8131    3.2482 C   0  0  1  0  0  0  0  0  0  0  0  0
   -2.8544    0.9220   -1.1210 C   0  0  1  0  0  0  0  0  0  0  0  0
   -4.2156    1.2237   -1.2364 F   0  0  0  0  0  0  0  0  0  0  0  0
   -2.1563    2.0645   -0.7156 F   0  0  0  0  0  0  0  0  0  0  0  0
   -2.3655    0.4915   -2.3591 F   0  0  0  0  0  0  0  0  0  0  0  0
    2.0792   -0.1048    0.0730 H   0  0  0  0  0  0  0  0  0  0  0  0
    1.3048   -1.6796    0.3706 H   0  0  0  0  0  0  0  0  0  0  0  0
    1.3471   -1.0056   -1.2763 H   0  0  0  0  0  0  0  0  0  0  0  0
    0.0425   -3.4134    0.2954 H   0  0  0  0  0  0  0  0  0  0  0  0
   -0.5737   -3.8414   -1.3187 H   0  0  0  0  0  0  0  0  0  0  0  0
    0.5766   -2.4958   -1.1332 H   0  0  0  0  0  0  0  0  0  0  0  0
   -4.1127   -3.7060   -1.5051 H   0  0  0  0  0  0  0  0  0  0  0  0
   -2.4213   -4.2562   -1.5740 H   0  0  0  0  0  0  0  0  0  0  0  0
   -1.3699   -5.2858    0.3596 H   0  0  0  0  0  0  0  0  0  0  0  0
   -1.7060   -6.5783    2.4283 H   0  0  0  0  0  0  0  0  0  0  0  0
   -3.9030   -6.5729    3.5401 H   0  0  0  0  0  0  0  0  0  0  0  0
   -5.7637   -5.2744    2.5837 H   0  0  0  0  0  0  0  0  0  0  0  0
   -5.4263   -3.9782    0.5175 H   0  0  0  0  0  0  0  0  0  0  0  0
   -2.2394    0.3084    1.9365 H   0  0  0  0  0  0  0  0  0  0  0  0
   -3.9267    0.7823    3.7684 H   0  0  0  0  0  0  0  0  0  0  0  0
   -4.3353    3.2720    4.0336 H   0  0  0  0  0  0  0  0  0  0  0  0
   -4.6524    3.4129    2.2222 H   0  0  0  0  0  0  0  0  0  0  0  0
   -6.5829    1.7811    2.4334 H   0  0  0  0  0  0  0  0  0  0  0  0
   -6.2658    1.6403    4.2448 H   0  0  0  0  0  0  0  0  0  0  0  0
  1  2  1  0
  1 28  1  1
  1 29  1  0
  1 30  1  0
  2  3  2  0
  2  4  1  0
  4 17  1  0
  4  5  2  0
  5  6  1  0
  5  7  1  0
  6 31  1  1
  6 32  1  0
  6 33  1  0
  7  8  1  0
  7 15  1  0
  8  9  1  0
  8 34  1  6
  8 35  1  0
  9 14  2  0
  9 10  1  0
 10 11  2  0
 10 36  1  0
 11 12  1  0
 11 37  1  0
 12 13  2  0
 12 38  1  0
 13 14  1  0
 13 39  1  0
 14 40  1  0
 15 16  2  0
 15 17  1  0
 17 18  1  1
 17 24  1  0
 18 19  1  0
 18 41  1  0
 19 20  2  0
 19 21  1  0
 21 23  1  0
 21 22  1  0
 21 42  1  1
 22 23  1  0
 22 43  1  1
 22 44  1  0
 23 45  1  6
 23 46  1  0
 24 25  1  6
 24 26  1  0
 24 27  1  0
M  END
$$$$
