ZINC000112511459
     RDKit          3D

 42 43  0  0  1  0  0  0  0  0999 V2000
   -0.0187    1.5258    0.0104 C   0  0  1  0  0  0  0  0  0  0  0  0
    0.0021   -0.0041    0.0020 C   0  0  1  0  0  0  0  0  0  0  0  0
   -1.0205   -0.3814    0.0098 H   0  0  0  0  0  0  0  0  0  0  0  0
    0.6897   -0.4778   -1.2066 N   0  0  1  0  0  0  0  0  0  0  0  0
    1.6363   -0.1286   -1.2138 H   0  0  0  0  0  0  0  0  0  0  0  0
    0.7033   -1.4867   -1.2121 H   0  0  0  0  0  0  0  0  0  0  0  0
    0.2017   -0.1436   -2.0240 H   0  0  0  0  0  0  0  0  0  0  0  0
    0.7421   -0.5109    1.2415 C   0  0  2  0  0  0  0  0  0  0  0  0
    0.2322   -0.1596    2.1386 H   0  0  0  0  0  0  0  0  0  0  0  0
    2.1784    0.0172    1.2305 C   0  0  1  0  0  0  0  0  0  0  0  0
    2.9097   -0.4622    2.4865 C   0  0  1  0  0  0  0  0  0  0  0  0
    2.9575   -1.9934    2.4915 C   0  0  1  0  0  0  0  0  0  0  0  0
    1.5886   -2.5097    2.3562 N   0  0  0  0  0  0  0  0  0  0  0  0
    0.9852   -3.5975    3.4493 S   0  0  1  0  0  0  0  0  0  0  0  0
   -0.0594   -4.2957    2.7858 O   0  0  0  0  0  0  0  0  0  0  0  0
    2.1076   -4.2471    4.0303 O   0  0  0  0  0  0  0  0  0  0  0  0
    0.2231   -2.6714    4.7402 C   0  0  0  0  0  0  0  0  0  0  0  0
    0.9634   -2.2800    5.8400 C   0  0  0  0  0  0  0  0  0  0  0  0
    0.3655   -1.5535    6.8527 C   0  0  0  0  0  0  0  0  0  0  0  0
   -0.9727   -1.2180    6.7653 C   0  0  0  0  0  0  0  0  0  0  0  0
   -1.6247   -0.4264    7.8696 C   0  0  1  0  0  0  0  0  0  0  0  0
   -1.5050    0.9405    7.5967 F   0  0  0  0  0  0  0  0  0  0  0  0
   -2.9786   -0.7688    7.9520 F   0  0  0  0  0  0  0  0  0  0  0  0
   -0.9956   -0.7161    9.0851 F   0  0  0  0  0  0  0  0  0  0  0  0
   -1.7127   -1.6083    5.6649 C   0  0  0  0  0  0  0  0  0  0  0  0
   -1.1138   -2.3315    4.6504 C   0  0  0  0  0  0  0  0  0  0  0  0
    0.7646   -2.0426    1.2329 C   0  0  1  0  0  0  0  0  0  0  0  0
    1.0039    1.9031    0.0027 H   0  0  0  0  0  0  0  0  0  0  0  0
   -0.5459    1.8868   -0.8726 H   0  0  0  0  0  0  0  0  0  0  0  0
   -0.5289    1.8773    0.9072 H   0  0  0  0  0  0  0  0  0  0  0  0
    2.6951   -0.3542    0.3454 H   0  0  0  0  0  0  0  0  0  0  0  0
    2.1646    1.1069    1.2120 H   0  0  0  0  0  0  0  0  0  0  0  0
    3.9253   -0.0665    2.4895 H   0  0  0  0  0  0  0  0  0  0  0  0
    2.3796   -0.1119    3.3721 H   0  0  0  0  0  0  0  0  0  0  0  0
    3.5641   -2.3428    1.6560 H   0  0  0  0  0  0  0  0  0  0  0  0
    3.3886   -2.3424    3.4298 H   0  0  0  0  0  0  0  0  0  0  0  0
    2.0089   -2.5421    5.9082 H   0  0  0  0  0  0  0  0  0  0  0  0
    0.9437   -1.2483    7.7122 H   0  0  0  0  0  0  0  0  0  0  0  0
   -2.7581   -1.3458    5.5965 H   0  0  0  0  0  0  0  0  0  0  0  0
   -1.6920   -2.6364    3.7906 H   0  0  0  0  0  0  0  0  0  0  0  0
   -0.2506   -2.4244    1.3409 H   0  0  0  0  0  0  0  0  0  0  0  0
    1.1921   -2.3958    0.2945 H   0  0  0  0  0  0  0  0  0  0  0  0
  1  2  1  0
  1 28  1  6
  1 29  1  0
  1 30  1  0
  2  3  1  1
  2  4  1  0
  2  8  1  0
  4  5  1  6
  4  6  1  0
  4  7  1  0
  8  9  1  1
  8 27  1  0
  8 10  1  0
 10 11  1  0
 10 31  1  6
 10 32  1  0
 11 12  1  0
 11 33  1  6
 11 34  1  0
 12 13  1  0
 12 35  1  6
 12 36  1  0
 14 13  1  6
 13 27  1  0
 14 15  2  0
 14 16  2  0
 14 17  1  0
 17 26  2  0
 17 18  1  0
 18 19  2  0
 18 37  1  0
 19 20  1  0
 19 38  1  0
 20 21  1  0
 20 25  2  0
 21 22  1  6
 21 23  1  0
 21 24  1  0
 25 26  1  0
 25 39  1  0
 26 40  1  0
 27 41  1  1
 27 42  1  0
M  CHG  1   4   1
M  END
$$$$
