ZINC000027338567
     RDKit          3D

 51 51  0  0  1  0  0  0  0  0999 V2000
   -0.0187    1.5258    0.0104 C   0  0  1  0  0  0  0  0  0  0  0  0
    0.0021   -0.0041    0.0020 C   0  0  1  0  0  0  0  0  0  0  0  0
    0.7421   -0.5109    1.2415 C   0  0  2  0  0  0  0  0  0  0  0  0
    1.7350   -0.0630    1.2804 H   0  0  0  0  0  0  0  0  0  0  0  0
    0.8719   -2.0337    1.1708 C   0  0  1  0  0  0  0  0  0  0  0  0
   -0.0083   -0.1401    2.4439 N   0  0  0  0  0  0  0  0  0  0  0  0
    0.6303   -0.0111    3.6237 C   0  0  0  0  0  0  0  0  0  0  0  0
    1.8262   -0.2020    3.6901 O   0  0  0  0  0  0  0  0  0  0  0  0
   -0.1416    0.3704    4.8606 C   0  0  1  0  0  0  0  0  0  0  0  0
    0.8130    0.4481    6.0537 C   0  0  1  0  0  0  0  0  0  0  0  0
    0.0411    0.8295    7.2906 C   0  0  0  0  0  0  0  0  0  0  0  0
   -0.1200    2.1621    7.6212 C   0  0  0  0  0  0  0  0  0  0  0  0
   -0.8280    2.5120    8.7557 C   0  0  0  0  0  0  0  0  0  0  0  0
   -1.3753    1.5294    9.5594 C   0  0  0  0  0  0  0  0  0  0  0  0
   -2.2773    1.9753   11.0058 S   0  0  1  0  0  0  0  0  0  0  0  0
   -2.2254    0.8513   11.8736 O   0  0  0  0  0  0  0  0  0  0  0  0
   -1.8214    3.2681   11.3803 O   0  0  0  0  0  0  0  0  0  0  0  0
   -3.8628    2.1495   10.5605 N   0  0  0  0  0  0  0  0  0  0  0  0
   -4.7691    0.9997   10.6140 C   0  0  1  0  0  0  0  0  0  0  0  0
   -5.5225    1.0057   11.9456 C   0  0  1  0  0  0  0  0  0  0  0  0
   -4.3591    3.4532   10.1132 C   0  0  1  0  0  0  0  0  0  0  0  0
   -4.3025    3.5238    8.5859 C   0  0  1  0  0  0  0  0  0  0  0  0
   -1.2154    0.1969    9.2280 C   0  0  0  0  0  0  0  0  0  0  0  0
   -0.5106   -0.1529    8.0914 C   0  0  0  0  0  0  0  0  0  0  0  0
    1.0039    1.9031    0.0027 H   0  0  0  0  0  0  0  0  0  0  0  0
   -0.5459    1.8868   -0.8726 H   0  0  0  0  0  0  0  0  0  0  0  0
   -0.5289    1.8773    0.9072 H   0  0  0  0  0  0  0  0  0  0  0  0
   -1.0205   -0.3814    0.0098 H   0  0  0  0  0  0  0  0  0  0  0  0
    0.5123   -0.3556   -0.8948 H   0  0  0  0  0  0  0  0  0  0  0  0
   -0.1210   -2.4817    1.1320 H   0  0  0  0  0  0  0  0  0  0  0  0
    1.4302   -2.3096    0.2763 H   0  0  0  0  0  0  0  0  0  0  0  0
    1.3991   -2.3948    2.0539 H   0  0  0  0  0  0  0  0  0  0  0  0
   -0.9647    0.0126    2.3909 H   0  0  0  0  0  0  0  0  0  0  0  0
   -0.6138    1.3411    4.7092 H   0  0  0  0  0  0  0  0  0  0  0  0
   -0.9077   -0.3798    5.0565 H   0  0  0  0  0  0  0  0  0  0  0  0
    1.2852   -0.5226    6.2051 H   0  0  0  0  0  0  0  0  0  0  0  0
    1.5792    1.1983    5.8578 H   0  0  0  0  0  0  0  0  0  0  0  0
    0.3076    2.9298    6.9933 H   0  0  0  0  0  0  0  0  0  0  0  0
   -0.9533    3.5530    9.0144 H   0  0  0  0  0  0  0  0  0  0  0  0
   -5.4829    1.0612    9.7925 H   0  0  0  0  0  0  0  0  0  0  0  0
   -4.1930    0.0786   10.5266 H   0  0  0  0  0  0  0  0  0  0  0  0
   -4.8088    0.9442   12.7671 H   0  0  0  0  0  0  0  0  0  0  0  0
   -6.0986    1.9268   12.0330 H   0  0  0  0  0  0  0  0  0  0  0  0
   -6.1969    0.1502   11.9854 H   0  0  0  0  0  0  0  0  0  0  0  0
   -5.3892    3.5833   10.4450 H   0  0  0  0  0  0  0  0  0  0  0  0
   -3.7385    4.2430   10.5367 H   0  0  0  0  0  0  0  0  0  0  0  0
   -4.9230    2.7341    8.1624 H   0  0  0  0  0  0  0  0  0  0  0  0
   -4.6717    4.4939    8.2530 H   0  0  0  0  0  0  0  0  0  0  0  0
   -3.2724    3.3938    8.2541 H   0  0  0  0  0  0  0  0  0  0  0  0
   -1.6433   -0.5708    9.8557 H   0  0  0  0  0  0  0  0  0  0  0  0
   -0.3856   -1.1939    7.8325 H   0  0  0  0  0  0  0  0  0  0  0  0
  1  2  1  0
  1 25  1  6
  1 26  1  0
  1 27  1  0
  2  3  1  0
  2 28  1  1
  2 29  1  0
  3  4  1  1
  3  5  1  0
  3  6  1  0
  5 30  1  6
  5 31  1  0
  5 32  1  0
  6  7  1  0
  6 33  1  0
  7  8  2  0
  7  9  1  0
  9 10  1  0
  9 34  1  6
  9 35  1  0
 10 11  1  0
 10 36  1  1
 10 37  1  0
 11 24  2  0
 11 12  1  0
 12 13  2  0
 12 38  1  0
 13 14  1  0
 13 39  1  0
 14 15  1  0
 14 23  2  0
 15 16  2  0
 15 17  2  0
 15 18  1  6
 18 19  1  0
 18 21  1  0
 19 20  1  0
 19 40  1  6
 19 41  1  0
 20 42  1  1
 20 43  1  0
 20 44  1  0
 21 22  1  0
 21 45  1  6
 21 46  1  0
 22 47  1  6
 22 48  1  0
 22 49  1  0
 23 24  1  0
 23 50  1  0
 24 51  1  0
M  END
$$$$
