ZINC000029789750
     RDKit          3D

 43 45  0  0  1  0  0  0  0  0999 V2000
   -0.7640    1.6691   -1.4309 C   0  0  1  0  0  0  0  0  0  0  0  0
   -0.8393    0.1413   -1.4013 C   0  0  1  0  0  0  0  0  0  0  0  0
   -1.5230   -0.2047   -2.1765 H   0  0  0  0  0  0  0  0  0  0  0  0
    0.5552   -0.4450   -1.6496 C   0  0  1  0  0  0  0  0  0  0  0  0
    0.4930   -1.8989   -1.4311 N   0  0  0  0  0  0  0  0  0  0  0  0
    0.9746   -2.7597   -2.3495 C   0  0  0  0  0  0  0  0  0  0  0  0
    1.3768   -2.3451   -3.4193 O   0  0  0  0  0  0  0  0  0  0  0  0
    1.0138   -4.2061   -2.0565 C   0  0  0  0  0  0  0  0  0  0  0  0
    1.5436   -4.6637   -0.8502 C   0  0  0  0  0  0  0  0  0  0  0  0
    1.5778   -6.0166   -0.5815 C   0  0  0  0  0  0  0  0  0  0  0  0
    1.0889   -6.9268   -1.5035 C   0  0  0  0  0  0  0  0  0  0  0  0
    0.5608   -6.4921   -2.7030 C   0  0  0  0  0  0  0  0  0  0  0  0
    0.5118   -5.1312   -2.9897 C   0  0  0  0  0  0  0  0  0  0  0  0
   -0.0541   -4.6602   -4.2757 C   0  0  0  0  0  0  0  0  0  0  0  0
   -1.1053   -3.7441   -4.2841 C   0  0  0  0  0  0  0  0  0  0  0  0
   -1.6282   -3.3092   -5.4848 C   0  0  0  0  0  0  0  0  0  0  0  0
   -1.1116   -3.7803   -6.6785 C   0  0  0  0  0  0  0  0  0  0  0  0
   -1.6872   -3.3014   -7.9864 C   0  0  1  0  0  0  0  0  0  0  0  0
   -0.9987   -2.1590   -8.4084 F   0  0  0  0  0  0  0  0  0  0  0  0
   -1.5562   -4.3073   -8.9497 F   0  0  0  0  0  0  0  0  0  0  0  0
   -3.0410   -2.9932   -7.8150 F   0  0  0  0  0  0  0  0  0  0  0  0
   -0.0685   -4.6889   -6.6765 C   0  0  0  0  0  0  0  0  0  0  0  0
    0.4662   -5.1270   -5.4822 C   0  0  0  0  0  0  0  0  0  0  0  0
   -0.1100   -2.3851   -0.1800 C   0  0  1  0  0  0  0  0  0  0  0  0
   -1.4721   -1.7043   -0.0033 C   0  0  1  0  0  0  0  0  0  0  0  0
   -1.3108   -0.2888   -0.1220 O   0  0  0  0  0  0  0  0  0  0  0  0
   -0.0802    2.0143   -0.6555 H   0  0  0  0  0  0  0  0  0  0  0  0
   -0.4028    1.9962   -2.4059 H   0  0  0  0  0  0  0  0  0  0  0  0
   -1.7555    2.0853   -1.2525 H   0  0  0  0  0  0  0  0  0  0  0  0
    0.8619   -0.2407   -2.6754 H   0  0  0  0  0  0  0  0  0  0  0  0
    1.2693    0.0002   -0.9568 H   0  0  0  0  0  0  0  0  0  0  0  0
    1.9272   -3.9594   -0.1269 H   0  0  0  0  0  0  0  0  0  0  0  0
    1.9886   -6.3679    0.3535 H   0  0  0  0  0  0  0  0  0  0  0  0
    1.1213   -7.9836   -1.2832 H   0  0  0  0  0  0  0  0  0  0  0  0
    0.1816   -7.2082   -3.4170 H   0  0  0  0  0  0  0  0  0  0  0  0
   -1.5096   -3.3759   -3.3528 H   0  0  0  0  0  0  0  0  0  0  0  0
   -2.4426   -2.5999   -5.4926 H   0  0  0  0  0  0  0  0  0  0  0  0
    0.3307   -5.0532   -7.6116 H   0  0  0  0  0  0  0  0  0  0  0  0
    1.2808   -5.8362   -5.4818 H   0  0  0  0  0  0  0  0  0  0  0  0
   -0.2437   -3.4656   -0.2326 H   0  0  0  0  0  0  0  0  0  0  0  0
    0.5371   -2.1353    0.6608 H   0  0  0  0  0  0  0  0  0  0  0  0
   -2.1583   -2.0577   -0.7729 H   0  0  0  0  0  0  0  0  0  0  0  0
   -1.8737   -1.9436    0.9814 H   0  0  0  0  0  0  0  0  0  0  0  0
  1  2  1  0
  1 27  1  1
  1 28  1  0
  1 29  1  0
  2  3  1  6
  2 26  1  0
  2  4  1  0
  4  5  1  0
  4 30  1  6
  4 31  1  0
  5  6  1  0
  5 24  1  0
  6  7  2  0
  6  8  1  0
  8 13  2  0
  8  9  1  0
  9 10  2  0
  9 32  1  0
 10 11  1  0
 10 33  1  0
 11 12  2  0
 11 34  1  0
 12 13  1  0
 12 35  1  0
 13 14  1  0
 14 23  2  0
 14 15  1  0
 15 16  2  0
 15 36  1  0
 16 17  1  0
 16 37  1  0
 17 18  1  0
 17 22  2  0
 18 19  1  6
 18 20  1  0
 18 21  1  0
 22 23  1  0
 22 38  1  0
 23 39  1  0
 24 25  1  0
 24 40  1  6
 24 41  1  0
 25 26  1  0
 25 42  1  6
 25 43  1  0
M  END
$$$$
