ZINC000028654811
     RDKit          3D

 46 48  0  0  1  0  0  0  0  0999 V2000
   -1.0422    1.7074    0.5490 C   0  0  1  0  0  0  0  0  0  0  0  0
   -1.0396    0.1927    0.7650 C   0  0  2  0  0  0  0  0  0  0  0  0
   -0.0138   -0.1755    0.7493 H   0  0  0  0  0  0  0  0  0  0  0  0
   -1.8440   -0.4849   -0.3503 C   0  0  1  0  0  0  0  0  0  0  0  0
   -1.9845   -1.9119   -0.0198 N   0  0  0  0  0  0  0  0  0  0  0  0
   -1.6767   -2.8662   -0.9203 C   0  0  0  0  0  0  0  0  0  0  0  0
   -1.3693   -2.5551   -2.0547 O   0  0  0  0  0  0  0  0  0  0  0  0
   -1.7126   -4.2893   -0.5293 C   0  0  0  0  0  0  0  0  0  0  0  0
   -0.9585   -4.7386    0.5546 C   0  0  0  0  0  0  0  0  0  0  0  0
   -0.9958   -6.0697    0.9157 C   0  0  0  0  0  0  0  0  0  0  0  0
   -1.7785   -6.9662    0.2078 C   0  0  0  0  0  0  0  0  0  0  0  0
   -2.5317   -6.5395   -0.8679 C   0  0  0  0  0  0  0  0  0  0  0  0
   -2.5122   -5.1996   -1.2437 C   0  0  0  0  0  0  0  0  0  0  0  0
   -3.3190   -4.7372   -2.3976 C   0  0  0  0  0  0  0  0  0  0  0  0
   -4.2453   -3.7077   -2.2362 C   0  0  0  0  0  0  0  0  0  0  0  0
   -4.9937   -3.2814   -3.3143 C   0  0  0  0  0  0  0  0  0  0  0  0
   -4.8264   -3.8734   -4.5533 C   0  0  0  0  0  0  0  0  0  0  0  0
   -5.6469   -3.4032   -5.7267 C   0  0  1  0  0  0  0  0  0  0  0  0
   -4.9689   -2.3727   -6.3868 F   0  0  0  0  0  0  0  0  0  0  0  0
   -5.8502   -4.4685   -6.6104 F   0  0  0  0  0  0  0  0  0  0  0  0
   -6.8832   -2.9318   -5.2722 F   0  0  0  0  0  0  0  0  0  0  0  0
   -3.9086   -4.8950   -4.7197 C   0  0  0  0  0  0  0  0  0  0  0  0
   -3.1506   -5.3262   -3.6502 C   0  0  0  0  0  0  0  0  0  0  0  0
   -2.4708   -2.2662    1.3231 C   0  0  1  0  0  0  0  0  0  0  0  0
   -1.6359   -1.5018    2.3569 C   0  0  1  0  0  0  0  0  0  0  0  0
   -2.0667   -1.6418    3.3483 H   0  0  0  0  0  0  0  0  0  0  0  0
   -0.1997   -2.0291    2.3447 C   0  0  1  0  0  0  0  0  0  0  0  0
   -1.6366   -0.1105    2.0281 O   0  0  0  0  0  0  0  0  0  0  0  0
   -0.4716    2.1887    1.3434 H   0  0  0  0  0  0  0  0  0  0  0  0
   -0.5886    1.9378   -0.4149 H   0  0  0  0  0  0  0  0  0  0  0  0
   -2.0683    2.0749    0.5648 H   0  0  0  0  0  0  0  0  0  0  0  0
   -2.8300   -0.0259   -0.4226 H   0  0  0  0  0  0  0  0  0  0  0  0
   -1.3182   -0.3778   -1.2991 H   0  0  0  0  0  0  0  0  0  0  0  0
   -0.3453   -4.0449    1.1107 H   0  0  0  0  0  0  0  0  0  0  0  0
   -0.4107   -6.4146    1.7554 H   0  0  0  0  0  0  0  0  0  0  0  0
   -1.7997   -8.0061    0.4987 H   0  0  0  0  0  0  0  0  0  0  0  0
   -3.1396   -7.2448   -1.4151 H   0  0  0  0  0  0  0  0  0  0  0  0
   -4.3770   -3.2450   -1.2692 H   0  0  0  0  0  0  0  0  0  0  0  0
   -5.7118   -2.4842   -3.1904 H   0  0  0  0  0  0  0  0  0  0  0  0
   -3.7823   -5.3534   -5.6894 H   0  0  0  0  0  0  0  0  0  0  0  0
   -2.4342   -6.1236   -3.7813 H   0  0  0  0  0  0  0  0  0  0  0  0
   -3.5199   -1.9866    1.4193 H   0  0  0  0  0  0  0  0  0  0  0  0
   -2.3601   -3.3388    1.4825 H   0  0  0  0  0  0  0  0  0  0  0  0
    0.2311   -1.8871    1.3535 H   0  0  0  0  0  0  0  0  0  0  0  0
    0.3933   -1.4852    3.0799 H   0  0  0  0  0  0  0  0  0  0  0  0
   -0.2003   -3.0907    2.5919 H   0  0  0  0  0  0  0  0  0  0  0  0
  1  2  1  0
  1 29  1  1
  1 30  1  0
  1 31  1  0
  2  3  1  1
  2 28  1  0
  2  4  1  0
  4  5  1  0
  4 32  1  6
  4 33  1  0
  5  6  1  0
  5 24  1  0
  6  7  2  0
  6  8  1  0
  8 13  2  0
  8  9  1  0
  9 10  2  0
  9 34  1  0
 10 11  1  0
 10 35  1  0
 11 12  2  0
 11 36  1  0
 12 13  1  0
 12 37  1  0
 13 14  1  0
 14 23  2  0
 14 15  1  0
 15 16  2  0
 15 38  1  0
 16 17  1  0
 16 39  1  0
 17 18  1  0
 17 22  2  0
 18 19  1  6
 18 20  1  0
 18 21  1  0
 22 23  1  0
 22 40  1  0
 23 41  1  0
 24 25  1  0
 24 42  1  6
 24 43  1  0
 25 26  1  1
 25 27  1  0
 25 28  1  0
 27 44  1  6
 27 45  1  0
 27 46  1  0
M  END
$$$$
