ZINC000108268454
     RDKit          3D

 60 62  0  0  0  0  0  0  0  0999 V2000
    1.0224   -5.9028  -10.0326 C   0  0  1  0  0  0  0  0  0  0  0  0
    1.5278   -4.5714   -9.9145 O   0  0  0  0  0  0  0  0  0  0  0  0
    1.7761   -4.1148   -8.6588 C   0  0  0  0  0  0  0  0  0  0  0  0
    1.5436   -4.9334   -7.5633 C   0  0  0  0  0  0  0  0  0  0  0  0
    1.7973   -4.4671   -6.2877 C   0  0  0  0  0  0  0  0  0  0  0  0
    2.2820   -3.1857   -6.1026 C   0  0  0  0  0  0  0  0  0  0  0  0
    2.6039   -2.5938   -4.4745 S   0  0  1  0  0  0  0  0  0  0  0  0
    2.5210   -1.1767   -4.5391 O   0  0  0  0  0  0  0  0  0  0  0  0
    1.8088   -3.3797   -3.5973 O   0  0  0  0  0  0  0  0  0  0  0  0
    4.1819   -2.9545   -4.1249 N   0  0  0  0  0  0  0  0  0  0  0  0
    4.5348   -4.2833   -3.6191 C   0  0  1  0  0  0  0  0  0  0  0  0
    4.9649   -5.1598   -4.7671 C   0  0  0  0  0  0  0  0  0  0  0  0
    4.9756   -4.7180   -5.8965 O   0  0  0  0  0  0  0  0  0  0  0  0
    5.3378   -6.4347   -4.5386 N   0  0  0  0  0  0  0  0  0  0  0  0
    5.7559   -7.2868   -5.6546 C   0  0  1  0  0  0  0  0  0  0  0  0
    7.2412   -7.0584   -5.9419 C   0  0  1  0  0  0  0  0  0  0  0  0
    7.6779   -7.9483   -7.1074 C   0  0  1  0  0  0  0  0  0  0  0  0
    7.4490   -9.4162   -6.7418 C   0  0  1  0  0  0  0  0  0  0  0  0
    5.9637   -9.6446   -6.4545 C   0  0  1  0  0  0  0  0  0  0  0  0
    5.5270   -8.7547   -5.2890 C   0  0  1  0  0  0  0  0  0  0  0  0
    5.2249   -1.9447   -4.3215 C   0  0  1  0  0  0  0  0  0  0  0  0
    5.4908   -1.2368   -3.0179 C   0  0  0  0  0  0  0  0  0  0  0  0
    4.8526   -0.0433   -2.7368 C   0  0  0  0  0  0  0  0  0  0  0  0
    5.0964    0.6060   -1.5410 C   0  0  0  0  0  0  0  0  0  0  0  0
    5.9782    0.0616   -0.6262 C   0  0  0  0  0  0  0  0  0  0  0  0
    6.6158   -1.1324   -0.9069 C   0  0  0  0  0  0  0  0  0  0  0  0
    6.3686   -1.7839   -2.1008 C   0  0  0  0  0  0  0  0  0  0  0  0
    2.5149   -2.3678   -7.1931 C   0  0  0  0  0  0  0  0  0  0  0  0
    2.2679   -2.8311   -8.4706 C   0  0  0  0  0  0  0  0  0  0  0  0
    2.5225   -1.9394   -9.6586 C   0  0  1  0  0  0  0  0  0  0  0  0
    1.7389   -6.6028   -9.6028 H   0  0  0  0  0  0  0  0  0  0  0  0
    0.0745   -5.9802   -9.5001 H   0  0  0  0  0  0  0  0  0  0  0  0
    0.8684   -6.1409  -11.0851 H   0  0  0  0  0  0  0  0  0  0  0  0
    1.1644   -5.9343   -7.7074 H   0  0  0  0  0  0  0  0  0  0  0  0
    1.6165   -5.1041   -5.4345 H   0  0  0  0  0  0  0  0  0  0  0  0
    5.3524   -4.1944   -2.9037 H   0  0  0  0  0  0  0  0  0  0  0  0
    3.6688   -4.7269   -3.1279 H   0  0  0  0  0  0  0  0  0  0  0  0
    5.3292   -6.7880   -3.6353 H   0  0  0  0  0  0  0  0  0  0  0  0
    5.1719   -7.0376   -6.5406 H   0  0  0  0  0  0  0  0  0  0  0  0
    7.4043   -6.0126   -6.2024 H   0  0  0  0  0  0  0  0  0  0  0  0
    7.8252   -7.3075   -5.0559 H   0  0  0  0  0  0  0  0  0  0  0  0
    7.0939   -7.6992   -7.9934 H   0  0  0  0  0  0  0  0  0  0  0  0
    8.7361   -7.7856   -7.3121 H   0  0  0  0  0  0  0  0  0  0  0  0
    7.7601  -10.0502   -7.5721 H   0  0  0  0  0  0  0  0  0  0  0  0
    8.0330   -9.6653   -5.8558 H   0  0  0  0  0  0  0  0  0  0  0  0
    5.3797   -9.3955   -7.3405 H   0  0  0  0  0  0  0  0  0  0  0  0
    5.8006  -10.6904   -6.1940 H   0  0  0  0  0  0  0  0  0  0  0  0
    6.1110   -9.0038   -4.4030 H   0  0  0  0  0  0  0  0  0  0  0  0
    4.4688   -8.9174   -5.0843 H   0  0  0  0  0  0  0  0  0  0  0  0
    6.1391   -2.4287   -4.6651 H   0  0  0  0  0  0  0  0  0  0  0  0
    4.8945   -1.2213   -5.0669 H   0  0  0  0  0  0  0  0  0  0  0  0
    4.1636    0.3821   -3.4515 H   0  0  0  0  0  0  0  0  0  0  0  0
    4.5983    1.5388   -1.3217 H   0  0  0  0  0  0  0  0  0  0  0  0
    6.1693    0.5692    0.3077 H   0  0  0  0  0  0  0  0  0  0  0  0
    7.3050   -1.5576   -0.1923 H   0  0  0  0  0  0  0  0  0  0  0  0
    6.8667   -2.7167   -2.3202 H   0  0  0  0  0  0  0  0  0  0  0  0
    2.8939   -1.3672   -7.0459 H   0  0  0  0  0  0  0  0  0  0  0  0
    3.5473   -2.0773  -10.0033 H   0  0  0  0  0  0  0  0  0  0  0  0
    1.8314   -2.1972  -10.4611 H   0  0  0  0  0  0  0  0  0  0  0  0
    2.3729   -0.8989   -9.3705 H   0  0  0  0  0  0  0  0  0  0  0  0
  1  2  1  0
  1 31  1  1
  1 32  1  0
  1 33  1  0
  2  3  1  0
  3 29  2  0
  3  4  1  0
  4  5  2  0
  4 34  1  0
  5  6  1  0
  5 35  1  0
  6  7  1  0
  6 28  2  0
  7  8  2  0
  7  9  2  0
  7 10  1  1
 10 11  1  0
 10 21  1  0
 11 12  1  0
 11 36  1  1
 11 37  1  0
 12 13  2  0
 12 14  1  0
 14 15  1  0
 14 38  1  0
 15 20  1  0
 15 16  1  0
 15 39  1  6
 16 17  1  0
 16 40  1  6
 16 41  1  0
 17 18  1  0
 17 42  1  6
 17 43  1  0
 18 19  1  0
 18 44  1  6
 18 45  1  0
 19 20  1  0
 19 46  1  6
 19 47  1  0
 20 48  1  1
 20 49  1  0
 21 22  1  0
 21 50  1  6
 21 51  1  0
 22 27  2  0
 22 23  1  0
 23 24  2  0
 23 52  1  0
 24 25  1  0
 24 53  1  0
 25 26  2  0
 25 54  1  0
 26 27  1  0
 26 55  1  0
 27 56  1  0
 28 29  1  0
 28 57  1  0
 29 30  1  0
 30 58  1  6
 30 59  1  0
 30 60  1  0
M  END
$$$$
