ZINC000048142396
     RDKit          3D

 42 43  0  0  1  0  0  0  0  0999 V2000
   -0.5367    1.6199    0.3033 C   0  0  1  0  0  0  0  0  0  0  0  0
   -0.2712    0.1212    0.1478 C   0  0  2  0  0  0  0  0  0  0  0  0
    0.2652   -0.0580   -0.7840 H   0  0  0  0  0  0  0  0  0  0  0  0
   -1.5823   -0.6214    0.1236 C   0  0  0  0  0  0  0  0  0  0  0  0
   -2.0268   -1.1005    1.1453 O   0  0  0  0  0  0  0  0  0  0  0  0
   -2.2609   -0.7530   -1.0333 N   0  0  0  0  0  0  0  0  0  0  0  0
   -1.7314   -0.1829   -2.2801 C   0  0  1  0  0  0  0  0  0  0  0  0
   -1.6390   -1.2984   -3.3286 C   0  0  1  0  0  0  0  0  0  0  0  0
   -2.9215   -2.0151   -3.3661 N   0  0  0  0  0  0  0  0  0  0  0  0
   -3.6210   -2.1516   -4.5596 C   0  0  0  0  0  0  0  0  0  0  0  0
   -3.0082   -1.8101   -5.7607 C   0  0  0  0  0  0  0  0  0  0  0  0
   -3.7157   -1.9514   -6.9410 C   0  0  0  0  0  0  0  0  0  0  0  0
   -5.0171   -2.4313   -6.8800 C   0  0  0  0  0  0  0  0  0  0  0  0
   -5.8253   -2.6019   -8.1405 C   0  0  1  0  0  0  0  0  0  0  0  0
   -5.6260   -3.8888   -8.6517 F   0  0  0  0  0  0  0  0  0  0  0  0
   -7.1822   -2.4194   -7.8527 F   0  0  0  0  0  0  0  0  0  0  0  0
   -5.4180   -1.6558   -9.0872 F   0  0  0  0  0  0  0  0  0  0  0  0
   -5.5632   -2.7511   -5.6529 C   0  0  0  0  0  0  0  0  0  0  0  0
   -4.8629   -2.6109   -4.5434 N   0  0  0  0  0  0  0  0  0  0  0  0
   -3.4510   -2.5852   -2.1194 C   0  0  1  0  0  0  0  0  0  0  0  0
   -3.5407   -1.4746   -1.0719 C   0  0  1  0  0  0  0  0  0  0  0  0
    0.7293   -0.4636    1.5434 S   0  0  1  0  0  0  0  0  0  0  0  0
    2.1597    0.6496    1.4715 C   0  0  1  0  0  0  0  0  0  0  0  0
    0.0185   -0.2102    2.7476 O   0  0  0  0  0  0  0  0  0  0  0  0
    1.1695   -1.7852    1.2626 O   0  0  0  0  0  0  0  0  0  0  0  0
    0.4116    2.1570    0.3208 H   0  0  0  0  0  0  0  0  0  0  0  0
   -1.1378    1.9713   -0.5353 H   0  0  0  0  0  0  0  0  0  0  0  0
   -1.0730    1.7992    1.2351 H   0  0  0  0  0  0  0  0  0  0  0  0
   -2.4002    0.6003   -2.6372 H   0  0  0  0  0  0  0  0  0  0  0  0
   -0.7401    0.2330   -2.1001 H   0  0  0  0  0  0  0  0  0  0  0  0
   -1.4336   -0.8645   -4.3072 H   0  0  0  0  0  0  0  0  0  0  0  0
   -0.8413   -1.9900   -3.0577 H   0  0  0  0  0  0  0  0  0  0  0  0
   -1.9939   -1.4393   -5.7716 H   0  0  0  0  0  0  0  0  0  0  0  0
   -3.2660   -1.6938   -7.8886 H   0  0  0  0  0  0  0  0  0  0  0  0
   -6.5751   -3.1248   -5.6009 H   0  0  0  0  0  0  0  0  0  0  0  0
   -4.4423   -3.0011   -2.2994 H   0  0  0  0  0  0  0  0  0  0  0  0
   -2.7823   -3.3684   -1.7623 H   0  0  0  0  0  0  0  0  0  0  0  0
   -3.7461   -1.9098   -0.0939 H   0  0  0  0  0  0  0  0  0  0  0  0
   -4.3375   -0.7812   -1.3412 H   0  0  0  0  0  0  0  0  0  0  0  0
    1.8243    1.6802    1.5879 H   0  0  0  0  0  0  0  0  0  0  0  0
    2.8544    0.4009    2.2738 H   0  0  0  0  0  0  0  0  0  0  0  0
    2.6600    0.5367    0.5097 H   0  0  0  0  0  0  0  0  0  0  0  0
  1  2  1  0
  1 26  1  1
  1 27  1  0
  1 28  1  0
  2  3  1  6
  2  4  1  0
 22  2  1  6
  4  5  2  0
  4  6  1  0
  6 21  1  0
  6  7  1  0
  7  8  1  0
  7 29  1  6
  7 30  1  0
  8  9  1  0
  8 31  1  6
  8 32  1  0
  9 10  1  0
  9 20  1  0
 10 19  2  0
 10 11  1  0
 11 12  2  0
 11 33  1  0
 12 13  1  0
 12 34  1  0
 13 14  1  0
 13 18  2  0
 14 15  1  6
 14 16  1  0
 14 17  1  0
 18 19  1  0
 18 35  1  0
 20 21  1  0
 20 36  1  6
 20 37  1  0
 21 38  1  1
 21 39  1  0
 22 23  1  0
 22 24  2  0
 22 25  2  0
 23 40  1  1
 23 41  1  0
 23 42  1  0
M  END
$$$$
