ZINC000072346041
     RDKit          3D

 49 51  0  0  1  0  0  0  0  0999 V2000
   -0.0173    1.4248    0.0099 C   0  0  1  0  0  0  0  0  0  0  0  0
    0.0021   -0.0041    0.0020 O   0  0  0  0  0  0  0  0  0  0  0  0
    0.6518   -0.5703   -1.1379 C   0  0  1  0  0  0  0  0  0  0  0  0
    0.6137   -2.0738   -1.0425 C   0  0  0  0  0  0  0  0  0  0  0  0
    0.0824   -2.6078   -0.0920 O   0  0  0  0  0  0  0  0  0  0  0  0
    1.1699   -2.8249   -2.0135 N   0  0  0  0  0  0  0  0  0  0  0  0
    1.8225   -2.1924   -3.1680 C   0  0  1  0  0  0  0  0  0  0  0  0
    1.2133   -2.7632   -4.4525 C   0  0  1  0  0  0  0  0  0  0  0  0
    1.3201   -4.2897   -4.4285 C   0  0  1  0  0  0  0  0  0  0  0  0
    0.5343   -4.8390   -3.2357 C   0  0  1  0  0  0  0  0  0  0  0  0
   -0.5079   -4.5291   -3.3127 H   0  0  0  0  0  0  0  0  0  0  0  0
    0.6126   -6.3440   -3.2319 C   0  0  0  0  0  0  0  0  0  0  0  0
    1.7808   -6.9539   -3.1390 N   0  0  0  0  0  0  0  0  0  0  0  0
    1.8586   -8.2771   -3.1345 C   0  0  0  0  0  0  0  0  0  0  0  0
    3.1012   -8.8772   -3.0351 N   0  0  0  0  0  0  0  0  0  0  0  0
    0.7795   -9.0414   -3.2220 N   0  0  0  0  0  0  0  0  0  0  0  0
   -0.4246   -8.5058   -3.3179 C   0  0  0  0  0  0  0  0  0  0  0  0
   -0.5499   -7.1144   -3.3207 C   0  0  0  0  0  0  0  0  0  0  0  0
   -1.8826   -6.4709   -3.4261 C   0  0  0  0  0  0  0  0  0  0  0  0
   -2.2490   -5.4703   -2.5280 C   0  0  0  0  0  0  0  0  0  0  0  0
   -3.4898   -4.8748   -2.6310 C   0  0  0  0  0  0  0  0  0  0  0  0
   -4.3692   -5.2698   -3.6229 C   0  0  0  0  0  0  0  0  0  0  0  0
   -5.7226   -4.6158   -3.7303 C   0  0  1  0  0  0  0  0  0  0  0  0
   -5.6371   -3.5025   -4.5732 F   0  0  0  0  0  0  0  0  0  0  0  0
   -6.6418   -5.5297   -4.2566 F   0  0  0  0  0  0  0  0  0  0  0  0
   -6.1455   -4.2079   -2.4606 F   0  0  0  0  0  0  0  0  0  0  0  0
   -4.0107   -6.2624   -4.5171 C   0  0  0  0  0  0  0  0  0  0  0  0
   -2.7703   -6.8608   -4.4270 C   0  0  0  0  0  0  0  0  0  0  0  0
    1.1407   -4.2918   -1.9346 C   0  0  1  0  0  0  0  0  0  0  0  0
    1.0053    1.8021    0.0021 H   0  0  0  0  0  0  0  0  0  0  0  0
   -0.5445    1.7859   -0.8732 H   0  0  0  0  0  0  0  0  0  0  0  0
   -0.5275    1.7763    0.9067 H   0  0  0  0  0  0  0  0  0  0  0  0
    0.1385   -0.2506   -2.0447 H   0  0  0  0  0  0  0  0  0  0  0  0
    1.6883   -0.2344   -1.1694 H   0  0  0  0  0  0  0  0  0  0  0  0
    1.6607   -1.1150   -3.1342 H   0  0  0  0  0  0  0  0  0  0  0  0
    2.8914   -2.4044   -3.1450 H   0  0  0  0  0  0  0  0  0  0  0  0
    0.1648   -2.4728   -4.5181 H   0  0  0  0  0  0  0  0  0  0  0  0
    1.7537   -2.3742   -5.3155 H   0  0  0  0  0  0  0  0  0  0  0  0
    0.9096   -4.6970   -5.3524 H   0  0  0  0  0  0  0  0  0  0  0  0
    2.3671   -4.5790   -4.3380 H   0  0  0  0  0  0  0  0  0  0  0  0
    3.8999   -8.3306   -2.9701 H   0  0  0  0  0  0  0  0  0  0  0  0
    3.1737   -9.8445   -3.0306 H   0  0  0  0  0  0  0  0  0  0  0  0
   -1.2998   -9.1347   -3.3889 H   0  0  0  0  0  0  0  0  0  0  0  0
   -1.5634   -5.1617   -1.7527 H   0  0  0  0  0  0  0  0  0  0  0  0
   -3.7748   -4.0993   -1.9355 H   0  0  0  0  0  0  0  0  0  0  0  0
   -4.7012   -6.5669   -5.2897 H   0  0  0  0  0  0  0  0  0  0  0  0
   -2.4914   -7.6357   -5.1256 H   0  0  0  0  0  0  0  0  0  0  0  0
    2.1532   -4.6767   -1.8131 H   0  0  0  0  0  0  0  0  0  0  0  0
    0.5268   -4.5988   -1.0879 H   0  0  0  0  0  0  0  0  0  0  0  0
  1  2  1  0
  1 30  1  6
  1 31  1  0
  1 32  1  0
  2  3  1  0
  3  4  1  0
  3 33  1  6
  3 34  1  0
  4  5  2  0
  4  6  1  0
  6 29  1  0
  6  7  1  0
  7  8  1  0
  7 35  1  1
  7 36  1  0
  8  9  1  0
  8 37  1  6
  8 38  1  0
  9 10  1  0
  9 39  1  6
  9 40  1  0
 10 11  1  6
 10 12  1  0
 10 29  1  0
 12 18  2  0
 12 13  1  0
 13 14  2  0
 14 15  1  0
 14 16  1  0
 15 41  1  0
 15 42  1  0
 16 17  2  0
 17 18  1  0
 17 43  1  0
 18 19  1  0
 19 28  2  0
 19 20  1  0
 20 21  2  0
 20 44  1  0
 21 22  1  0
 21 45  1  0
 22 23  1  0
 22 27  2  0
 23 24  1  6
 23 25  1  0
 23 26  1  0
 27 28  1  0
 27 46  1  0
 28 47  1  0
 29 48  1  1
 29 49  1  0
M  END
$$$$
