ZINC000187154036
     RDKit          3D

 35 36  0  0  1  0  0  0  0  0999 V2000
   -0.0187    1.5258    0.0104 C   0  0  1  0  0  0  0  0  0  0  0  0
    0.0021   -0.0041    0.0020 C   0  0  2  0  0  0  0  0  0  0  0  0
    0.5122   -0.3560   -0.8947 H   0  0  0  0  0  0  0  0  0  0  0  0
   -1.4353   -0.5350    0.0142 C   0  0  1  0  0  0  0  0  0  0  0  0
   -1.3917   -1.9983    0.1568 N   0  0  0  0  0  0  0  0  0  0  0  0
   -2.2262   -2.9790   -0.8844 S   0  0  1  0  0  0  0  0  0  0  0  0
   -2.4418   -4.2035   -0.1964 O   0  0  0  0  0  0  0  0  0  0  0  0
   -3.2815   -2.1914   -1.4186 O   0  0  0  0  0  0  0  0  0  0  0  0
   -1.1498   -3.3471   -2.2299 C   0  0  0  0  0  0  0  0  0  0  0  0
   -0.7303   -4.6461   -2.4440 C   0  0  0  0  0  0  0  0  0  0  0  0
    0.1144   -4.9352   -3.4998 C   0  0  0  0  0  0  0  0  0  0  0  0
    0.5712   -6.3524   -3.7322 C   0  0  1  0  0  0  0  0  0  0  0  0
   -0.3317   -6.9999   -4.5824 F   0  0  0  0  0  0  0  0  0  0  0  0
    1.8405   -6.3427   -4.3203 F   0  0  0  0  0  0  0  0  0  0  0  0
    0.6287   -7.0302   -2.5098 F   0  0  0  0  0  0  0  0  0  0  0  0
    0.5398   -3.9255   -4.3425 C   0  0  0  0  0  0  0  0  0  0  0  0
    0.1219   -2.6253   -4.1300 C   0  0  0  0  0  0  0  0  0  0  0  0
   -0.7285   -2.3355   -3.0767 C   0  0  0  0  0  0  0  0  0  0  0  0
   -1.1376   -1.0650   -2.8680 F   0  0  0  0  0  0  0  0  0  0  0  0
   -0.5868   -2.5674    1.2484 C   0  0  1  0  0  0  0  0  0  0  0  0
    0.8172   -1.9564    1.1876 C   0  0  1  0  0  0  0  0  0  0  0  0
    0.7114   -0.4912    1.1926 N   0  0  0  0  0  0  0  0  0  0  0  0
    1.0039    1.9031    0.0027 H   0  0  0  0  0  0  0  0  0  0  0  0
   -0.5459    1.8868   -0.8726 H   0  0  0  0  0  0  0  0  0  0  0  0
   -0.5289    1.8773    0.9072 H   0  0  0  0  0  0  0  0  0  0  0  0
   -1.9787   -0.1014    0.8537 H   0  0  0  0  0  0  0  0  0  0  0  0
   -1.9305   -0.2729   -0.9207 H   0  0  0  0  0  0  0  0  0  0  0  0
   -1.0621   -5.4358   -1.7863 H   0  0  0  0  0  0  0  0  0  0  0  0
    1.1993   -4.1526   -5.1670 H   0  0  0  0  0  0  0  0  0  0  0  0
    0.4549   -1.8364   -4.7881 H   0  0  0  0  0  0  0  0  0  0  0  0
   -1.0487   -2.3291    2.2065 H   0  0  0  0  0  0  0  0  0  0  0  0
   -0.5210   -3.6488    1.1294 H   0  0  0  0  0  0  0  0  0  0  0  0
    1.3935   -2.2824    2.0534 H   0  0  0  0  0  0  0  0  0  0  0  0
    1.3161   -2.2815    0.2746 H   0  0  0  0  0  0  0  0  0  0  0  0
    1.6216   -0.0632    1.2722 H   0  0  0  0  0  0  0  0  0  0  0  0
  1  2  1  0
  1 23  1  6
  1 24  1  0
  1 25  1  0
  2  3  1  6
  2 22  1  0
  2  4  1  0
  4  5  1  0
  4 26  1  1
  4 27  1  0
  6  5  1  1
  5 20  1  0
  6  7  2  0
  6  8  2  0
  6  9  1  0
  9 18  2  0
  9 10  1  0
 10 11  2  0
 10 28  1  0
 11 12  1  0
 11 16  1  0
 12 13  1  6
 12 14  1  0
 12 15  1  0
 16 17  2  0
 16 29  1  0
 17 18  1  0
 17 30  1  0
 18 19  1  0
 20 21  1  0
 20 31  1  1
 20 32  1  0
 21 22  1  0
 21 33  1  1
 21 34  1  0
 22 35  1  0
M  END
$$$$
