ZINC000408622479
     RDKit          3D

 57 58  0  0  1  0  0  0  0  0999 V2000
   -0.0173    1.4248    0.0099 C   0  0  1  0  0  0  0  0  0  0  0  0
    0.0021   -0.0041    0.0020 O   0  0  0  0  0  0  0  0  0  0  0  0
    0.6734   -0.5824    1.1231 C   0  0  1  0  0  0  0  0  0  0  0  0
    0.6327   -2.1077    1.0107 C   0  0  2  0  0  0  0  0  0  0  0  0
    1.2199   -2.5473    1.8170 H   0  0  0  0  0  0  0  0  0  0  0  0
    1.2166   -2.5355   -0.3372 C   0  0  1  0  0  0  0  0  0  0  0  0
   -0.7546   -2.5679    1.1100 N   0  0  0  0  0  0  0  0  0  0  0  0
   -1.0210   -3.8180    1.5375 C   0  0  0  0  0  0  0  0  0  0  0  0
   -0.1122   -4.5620    1.8399 O   0  0  0  0  0  0  0  0  0  0  0  0
   -2.4481   -4.2913    1.6397 C   0  0  1  0  0  0  0  0  0  0  0  0
   -2.4706   -5.6735    2.1246 N   0  0  0  0  0  0  0  0  0  0  0  0
   -2.4250   -5.9460    3.5633 C   0  0  1  0  0  0  0  0  0  0  0  0
   -3.8187   -5.8762    4.1322 C   0  0  0  0  0  0  0  0  0  0  0  0
   -4.3132   -4.6748    4.6045 C   0  0  0  0  0  0  0  0  0  0  0  0
   -5.5916   -4.6109    5.1263 C   0  0  0  0  0  0  0  0  0  0  0  0
   -6.3758   -5.7482    5.1755 C   0  0  0  0  0  0  0  0  0  0  0  0
   -5.8817   -6.9494    4.7024 C   0  0  0  0  0  0  0  0  0  0  0  0
   -4.6048   -7.0125    4.1766 C   0  0  0  0  0  0  0  0  0  0  0  0
   -2.5476   -6.9281    1.0463 S   0  0  1  0  0  0  0  0  0  0  0  0
   -3.0987   -8.0310    1.7528 O   0  0  0  0  0  0  0  0  0  0  0  0
   -3.1215   -6.4012   -0.1420 O   0  0  0  0  0  0  0  0  0  0  0  0
   -0.8908   -7.3726    0.6441 C   0  0  0  0  0  0  0  0  0  0  0  0
   -0.2508   -6.7614   -0.4180 C   0  0  0  0  0  0  0  0  0  0  0  0
    1.0485   -7.1078   -0.7352 C   0  0  0  0  0  0  0  0  0  0  0  0
    1.7109   -8.0698    0.0131 C   0  0  0  0  0  0  0  0  0  0  0  0
    2.9892   -8.4120   -0.2966 O   0  0  0  0  0  0  0  0  0  0  0  0
    3.5899   -7.7406   -1.4059 C   0  0  1  0  0  0  0  0  0  0  0  0
    1.0664   -8.6817    1.0786 C   0  0  0  0  0  0  0  0  0  0  0  0
    1.7833   -9.7269    1.8940 C   0  0  1  0  0  0  0  0  0  0  0  0
   -0.2307   -8.3281    1.3949 C   0  0  0  0  0  0  0  0  0  0  0  0
    1.0053    1.8021    0.0021 H   0  0  0  0  0  0  0  0  0  0  0  0
   -0.5445    1.7859   -0.8732 H   0  0  0  0  0  0  0  0  0  0  0  0
   -0.5275    1.7763    0.9067 H   0  0  0  0  0  0  0  0  0  0  0  0
    1.7103   -0.2468    1.1385 H   0  0  0  0  0  0  0  0  0  0  0  0
    0.1775   -0.2725    2.0430 H   0  0  0  0  0  0  0  0  0  0  0  0
    2.2488   -2.1932   -0.4112 H   0  0  0  0  0  0  0  0  0  0  0  0
    1.1876   -3.6222   -0.4173 H   0  0  0  0  0  0  0  0  0  0  0  0
    0.6294   -2.0960   -1.1435 H   0  0  0  0  0  0  0  0  0  0  0  0
   -1.4815   -1.9728    0.8682 H   0  0  0  0  0  0  0  0  0  0  0  0
   -2.9936   -3.6534    2.3351 H   0  0  0  0  0  0  0  0  0  0  0  0
   -2.9181   -4.2431    0.6574 H   0  0  0  0  0  0  0  0  0  0  0  0
   -2.0131   -6.9410    3.7318 H   0  0  0  0  0  0  0  0  0  0  0  0
   -1.7948   -5.2040    4.0537 H   0  0  0  0  0  0  0  0  0  0  0  0
   -3.7005   -3.7863    4.5661 H   0  0  0  0  0  0  0  0  0  0  0  0
   -5.9777   -3.6724    5.4960 H   0  0  0  0  0  0  0  0  0  0  0  0
   -7.3744   -5.6984    5.5839 H   0  0  0  0  0  0  0  0  0  0  0  0
   -6.4942   -7.8381    4.7411 H   0  0  0  0  0  0  0  0  0  0  0  0
   -4.2187   -7.9510    3.8069 H   0  0  0  0  0  0  0  0  0  0  0  0
   -0.7671   -6.0127   -1.0005 H   0  0  0  0  0  0  0  0  0  0  0  0
    1.5479   -6.6303   -1.5653 H   0  0  0  0  0  0  0  0  0  0  0  0
    3.0081   -7.9354   -2.3069 H   0  0  0  0  0  0  0  0  0  0  0  0
    3.6124   -6.6681   -1.2127 H   0  0  0  0  0  0  0  0  0  0  0  0
    4.6073   -8.1063   -1.5443 H   0  0  0  0  0  0  0  0  0  0  0  0
    2.3051   -9.2469    2.7220 H   0  0  0  0  0  0  0  0  0  0  0  0
    1.0595  -10.4414    2.2860 H   0  0  0  0  0  0  0  0  0  0  0  0
    2.5039  -10.2482    1.2638 H   0  0  0  0  0  0  0  0  0  0  0  0
   -0.7327   -8.8039    2.2244 H   0  0  0  0  0  0  0  0  0  0  0  0
  1  2  1  0
  1 31  1  6
  1 32  1  0
  1 33  1  0
  2  3  1  0
  3  4  1  0
  3 34  1  1
  3 35  1  0
  4  5  1  1
  4  6  1  0
  4  7  1  0
  6 36  1  1
  6 37  1  0
  6 38  1  0
  7  8  1  0
  7 39  1  0
  8  9  2  0
  8 10  1  0
 10 11  1  0
 10 40  1  1
 10 41  1  0
 11 12  1  0
 19 11  1  1
 12 13  1  0
 12 42  1  6
 12 43  1  0
 13 18  2  0
 13 14  1  0
 14 15  2  0
 14 44  1  0
 15 16  1  0
 15 45  1  0
 16 17  2  0
 16 46  1  0
 17 18  1  0
 17 47  1  0
 18 48  1  0
 19 20  2  0
 19 21  2  0
 19 22  1  0
 22 30  2  0
 22 23  1  0
 23 24  2  0
 23 49  1  0
 24 25  1  0
 24 50  1  0
 25 26  1  0
 25 28  2  0
 26 27  1  0
 27 51  1  6
 27 52  1  0
 27 53  1  0
 28 29  1  0
 28 30  1  0
 29 54  1  1
 29 55  1  0
 29 56  1  0
 30 57  1  0
M  END
$$$$
