ZINC000408607912
     RDKit          3D

 52 52  0  0  1  0  0  0  0  0999 V2000
   -0.0187    1.5258    0.0104 C   0  0  1  0  0  0  0  0  0  0  0  0
    0.0021   -0.0041    0.0020 C   0  0  1  0  0  0  0  0  0  0  0  0
   -1.4333   -0.5336    0.0129 C   0  0  1  0  0  0  0  0  0  0  0  0
   -1.4126   -2.0635    0.0045 C   0  0  2  0  0  0  0  0  0  0  0  0
   -0.8263   -2.4142   -0.8449 H   0  0  0  0  0  0  0  0  0  0  0  0
   -2.8437   -2.5923   -0.1104 C   0  0  1  0  0  0  0  0  0  0  0  0
   -0.8103   -2.5505    1.2480 N   0  0  0  0  0  0  0  0  0  0  0  0
   -0.2268   -3.7649    1.2837 C   0  0  0  0  0  0  0  0  0  0  0  0
   -0.2003   -4.4545    0.2863 O   0  0  0  0  0  0  0  0  0  0  0  0
    0.3926   -4.2659    2.5628 C   0  0  1  0  0  0  0  0  0  0  0  0
    0.9422   -5.5674    2.3481 O   0  0  0  0  0  0  0  0  0  0  0  0
    1.5428   -6.1664    3.4099 C   0  0  0  0  0  0  0  0  0  0  0  0
    1.5969   -5.5174    4.6348 C   0  0  0  0  0  0  0  0  0  0  0  0
    2.2076   -6.1286    5.7127 C   0  0  0  0  0  0  0  0  0  0  0  0
    2.7649   -7.3860    5.5714 C   0  0  0  0  0  0  0  0  0  0  0  0
    3.5436   -8.1626    6.9480 S   0  0  1  0  0  0  0  0  0  0  0  0
    4.4589   -9.1075    6.4108 O   0  0  0  0  0  0  0  0  0  0  0  0
    3.9324   -7.1189    7.8305 O   0  0  0  0  0  0  0  0  0  0  0  0
    2.3810   -9.0361    7.7403 N   0  0  0  0  0  0  0  0  0  0  0  0
    2.1340  -10.4319    7.3701 C   0  0  1  0  0  0  0  0  0  0  0  0
    2.9358  -11.3534    8.2914 C   0  0  1  0  0  0  0  0  0  0  0  0
    1.5994   -8.4130    8.8114 C   0  0  1  0  0  0  0  0  0  0  0  0
    0.2866   -7.8753    8.2383 C   0  0  1  0  0  0  0  0  0  0  0  0
    2.7119   -8.0352    4.3518 C   0  0  0  0  0  0  0  0  0  0  0  0
    2.0978   -7.4304    3.2722 C   0  0  0  0  0  0  0  0  0  0  0  0
    1.0039    1.9031    0.0027 H   0  0  0  0  0  0  0  0  0  0  0  0
   -0.5459    1.8868   -0.8726 H   0  0  0  0  0  0  0  0  0  0  0  0
   -0.5289    1.8773    0.9072 H   0  0  0  0  0  0  0  0  0  0  0  0
    0.5123   -0.3556   -0.8948 H   0  0  0  0  0  0  0  0  0  0  0  0
    0.5293   -0.3651    0.8851 H   0  0  0  0  0  0  0  0  0  0  0  0
   -1.9435   -0.1821    0.9097 H   0  0  0  0  0  0  0  0  0  0  0  0
   -1.9605   -0.1726   -0.8702 H   0  0  0  0  0  0  0  0  0  0  0  0
   -3.2917   -2.2299   -1.0357 H   0  0  0  0  0  0  0  0  0  0  0  0
   -2.8289   -3.6822   -0.1164 H   0  0  0  0  0  0  0  0  0  0  0  0
   -3.4299   -2.2416    0.7389 H   0  0  0  0  0  0  0  0  0  0  0  0
   -0.8315   -1.9990    2.0457 H   0  0  0  0  0  0  0  0  0  0  0  0
    1.1840   -3.5843    2.8746 H   0  0  0  0  0  0  0  0  0  0  0  0
   -0.3698   -4.3172    3.3401 H   0  0  0  0  0  0  0  0  0  0  0  0
    1.1623   -4.5349    4.7455 H   0  0  0  0  0  0  0  0  0  0  0  0
    2.2499   -5.6237    6.6665 H   0  0  0  0  0  0  0  0  0  0  0  0
    1.0712  -10.6520    7.4714 H   0  0  0  0  0  0  0  0  0  0  0  0
    2.4417  -10.5937    6.3370 H   0  0  0  0  0  0  0  0  0  0  0  0
    2.7520  -12.3919    8.0160 H   0  0  0  0  0  0  0  0  0  0  0  0
    3.9985  -11.1332    8.1901 H   0  0  0  0  0  0  0  0  0  0  0  0
    2.6281  -11.1916    9.3245 H   0  0  0  0  0  0  0  0  0  0  0  0
    1.3834   -9.1536    9.5815 H   0  0  0  0  0  0  0  0  0  0  0  0
    2.1692   -7.5920    9.2465 H   0  0  0  0  0  0  0  0  0  0  0  0
    0.5027   -7.1348    7.4682 H   0  0  0  0  0  0  0  0  0  0  0  0
   -0.2831   -8.6964    7.8032 H   0  0  0  0  0  0  0  0  0  0  0  0
   -0.2948   -7.4118    9.0352 H   0  0  0  0  0  0  0  0  0  0  0  0
    3.1477   -9.0175    4.2440 H   0  0  0  0  0  0  0  0  0  0  0  0
    2.0566   -7.9379    2.3197 H   0  0  0  0  0  0  0  0  0  0  0  0
  1  2  1  0
  1 26  1  6
  1 27  1  0
  1 28  1  0
  2  3  1  0
  2 29  1  6
  2 30  1  0
  3  4  1  0
  3 31  1  1
  3 32  1  0
  4  5  1  6
  4  6  1  0
  4  7  1  0
  6 33  1  6
  6 34  1  0
  6 35  1  0
  7  8  1  0
  7 36  1  0
  8  9  2  0
  8 10  1  0
 10 11  1  0
 10 37  1  1
 10 38  1  0
 11 12  1  0
 12 25  2  0
 12 13  1  0
 13 14  2  0
 13 39  1  0
 14 15  1  0
 14 40  1  0
 15 16  1  0
 15 24  2  0
 16 17  2  0
 16 18  2  0
 16 19  1  1
 19 20  1  0
 19 22  1  0
 20 21  1  0
 20 41  1  6
 20 42  1  0
 21 43  1  6
 21 44  1  0
 21 45  1  0
 22 23  1  0
 22 46  1  1
 22 47  1  0
 23 48  1  6
 23 49  1  0
 23 50  1  0
 24 25  1  0
 24 51  1  0
 25 52  1  0
M  END
$$$$
