ZINC000045974619
     RDKit          3D

 61 62  0  0  0  0  0  0  0  0999 V2000
   -0.0173    1.4248    0.0099 C   0  0  1  0  0  0  0  0  0  0  0  0
    0.0021   -0.0041    0.0020 O   0  0  0  0  0  0  0  0  0  0  0  0
   -1.2953   -0.6030    0.0112 C   0  0  1  0  0  0  0  0  0  0  0  0
   -1.1538   -2.1264    0.0017 C   0  0  1  0  0  0  0  0  0  0  0  0
   -2.5429   -2.7677    0.0115 C   0  0  1  0  0  0  0  0  0  0  0  0
   -2.4075   -4.2264    0.0023 N   0  0  0  0  0  0  0  0  0  0  0  0
   -2.2176   -4.9523    1.2606 C   0  0  1  0  0  0  0  0  0  0  0  0
   -3.5592   -5.2254    1.8904 C   0  0  0  0  0  0  0  0  0  0  0  0
   -4.5740   -4.8505    1.3422 O   0  0  0  0  0  0  0  0  0  0  0  0
   -3.6312   -5.8861    3.0629 N   0  0  0  0  0  0  0  0  0  0  0  0
   -2.4127   -6.3441    3.7475 C   0  0  1  0  0  0  0  0  0  0  0  0
   -2.5737   -7.8299    4.0859 C   0  0  1  0  0  0  0  0  0  0  0  0
   -3.8198   -8.0252    4.8389 N   0  0  0  0  0  0  0  0  0  0  0  0
   -4.9924   -7.6612    4.0323 C   0  0  1  0  0  0  0  0  0  0  0  0
   -4.9302   -6.1630    3.6947 C   0  0  1  0  0  0  0  0  0  0  0  0
   -2.4690   -5.0547   -1.4303 S   0  0  1  0  0  0  0  0  0  0  0  0
   -2.8632   -6.3818   -1.1099 O   0  0  0  0  0  0  0  0  0  0  0  0
   -3.1837   -4.2299   -2.3403 O   0  0  0  0  0  0  0  0  0  0  0  0
   -0.8204   -5.1597   -2.0433 C   0  0  0  0  0  0  0  0  0  0  0  0
   -0.3254   -4.1673   -2.8685 C   0  0  0  0  0  0  0  0  0  0  0  0
    0.9680   -4.2497   -3.3494 C   0  0  0  0  0  0  0  0  0  0  0  0
    1.7665   -5.3242   -3.0048 C   0  0  0  0  0  0  0  0  0  0  0  0
    3.1763   -5.4142   -3.5294 C   0  0  1  0  0  0  0  0  0  0  0  0
    4.1290   -4.7211   -2.5533 C   0  0  1  0  0  0  0  0  0  0  0  0
    4.1417   -5.4822   -1.2260 C   0  0  1  0  0  0  0  0  0  0  0  0
    5.5402   -4.7028   -3.1442 C   0  0  1  0  0  0  0  0  0  0  0  0
    1.2719   -6.3158   -2.1784 C   0  0  0  0  0  0  0  0  0  0  0  0
   -0.0202   -6.2315   -1.6944 C   0  0  0  0  0  0  0  0  0  0  0  0
    1.0053    1.8021    0.0021 H   0  0  0  0  0  0  0  0  0  0  0  0
   -0.5445    1.7859   -0.8732 H   0  0  0  0  0  0  0  0  0  0  0  0
   -0.5275    1.7763    0.9067 H   0  0  0  0  0  0  0  0  0  0  0  0
   -1.8320   -0.2936    0.9080 H   0  0  0  0  0  0  0  0  0  0  0  0
   -1.8490   -0.2840   -0.8718 H   0  0  0  0  0  0  0  0  0  0  0  0
   -0.6171   -2.4359   -0.8952 H   0  0  0  0  0  0  0  0  0  0  0  0
   -0.6001   -2.4454    0.8847 H   0  0  0  0  0  0  0  0  0  0  0  0
   -3.0796   -2.4582    0.9083 H   0  0  0  0  0  0  0  0  0  0  0  0
   -3.0966   -2.4487   -0.8716 H   0  0  0  0  0  0  0  0  0  0  0  0
   -1.7103   -5.8965    1.0624 H   0  0  0  0  0  0  0  0  0  0  0  0
   -1.6132   -4.3507    1.9395 H   0  0  0  0  0  0  0  0  0  0  0  0
   -1.5520   -6.2089    3.0925 H   0  0  0  0  0  0  0  0  0  0  0  0
   -2.2715   -5.7728    4.6650 H   0  0  0  0  0  0  0  0  0  0  0  0
   -2.6107   -8.4109    3.1643 H   0  0  0  0  0  0  0  0  0  0  0  0
   -1.7282   -8.1591    4.6900 H   0  0  0  0  0  0  0  0  0  0  0  0
   -3.8934   -8.9731    5.1767 H   0  0  0  0  0  0  0  0  0  0  0  0
   -4.9957   -8.2445    3.1115 H   0  0  0  0  0  0  0  0  0  0  0  0
   -5.9011   -7.8679    4.5976 H   0  0  0  0  0  0  0  0  0  0  0  0
   -5.0319   -5.5773    4.6083 H   0  0  0  0  0  0  0  0  0  0  0  0
   -5.7335   -5.9100    3.0029 H   0  0  0  0  0  0  0  0  0  0  0  0
   -0.9492   -3.3278   -3.1378 H   0  0  0  0  0  0  0  0  0  0  0  0
    1.3546   -3.4747   -3.9947 H   0  0  0  0  0  0  0  0  0  0  0  0
    3.4597   -6.4617   -3.6318 H   0  0  0  0  0  0  0  0  0  0  0  0
    3.2339   -4.9255   -4.5021 H   0  0  0  0  0  0  0  0  0  0  0  0
    3.7934   -3.6983   -2.3824 H   0  0  0  0  0  0  0  0  0  0  0  0
    4.4774   -6.5050   -1.3969 H   0  0  0  0  0  0  0  0  0  0  0  0
    4.8205   -4.9884   -0.5306 H   0  0  0  0  0  0  0  0  0  0  0  0
    3.1364   -5.4952   -0.8051 H   0  0  0  0  0  0  0  0  0  0  0  0
    5.5312   -4.1606   -4.0897 H   0  0  0  0  0  0  0  0  0  0  0  0
    6.2189   -4.2091   -2.4487 H   0  0  0  0  0  0  0  0  0  0  0  0
    5.8759   -5.7257   -3.3150 H   0  0  0  0  0  0  0  0  0  0  0  0
    1.8958   -7.1551   -1.9088 H   0  0  0  0  0  0  0  0  0  0  0  0
   -0.4066   -7.0063   -1.0488 H   0  0  0  0  0  0  0  0  0  0  0  0
  1  2  1  0
  1 29  1  6
  1 30  1  0
  1 31  1  0
  2  3  1  0
  3  4  1  0
  3 32  1  1
  3 33  1  0
  4  5  1  0
  4 34  1  6
  4 35  1  0
  5  6  1  0
  5 36  1  1
  5 37  1  0
  6  7  1  0
 16  6  1  1
  7  8  1  0
  7 38  1  6
  7 39  1  0
  8  9  2  0
  8 10  1  0
 10 15  1  0
 10 11  1  0
 11 12  1  0
 11 40  1  6
 11 41  1  0
 12 13  1  0
 12 42  1  6
 12 43  1  0
 13 14  1  0
 13 44  1  0
 14 15  1  0
 14 45  1  6
 14 46  1  0
 15 47  1  1
 15 48  1  0
 16 17  2  0
 16 18  2  0
 16 19  1  0
 19 28  2  0
 19 20  1  0
 20 21  2  0
 20 49  1  0
 21 22  1  0
 21 50  1  0
 22 23  1  0
 22 27  2  0
 23 24  1  0
 23 51  1  6
 23 52  1  0
 24 25  1  0
 24 26  1  0
 24 53  1  1
 25 54  1  6
 25 55  1  0
 25 56  1  0
 26 57  1  6
 26 58  1  0
 26 59  1  0
 27 28  1  0
 27 60  1  0
 28 61  1  0
M  END
$$$$
