ZINC000024712259
     RDKit          3D

 40 41  0  0  1  0  0  0  0  0999 V2000
   -0.4788    1.8894   -0.1559 C   0  0  1  0  0  0  0  0  0  0  0  0
   -0.2666    0.4411   -0.2165 N   0  0  0  0  0  0  0  0  0  0  0  0
    1.0891   -0.0952   -0.3609 C   0  0  1  0  0  0  0  0  0  0  0  0
   -1.3185   -0.3979   -0.1393 C   0  0  0  0  0  0  0  0  0  0  0  0
   -2.4408    0.0461   -0.0198 O   0  0  0  0  0  0  0  0  0  0  0  0
   -1.1002   -1.8877   -0.2016 C   0  0  1  0  0  0  0  0  0  0  0  0
   -0.6149   -2.1521   -1.1411 H   0  0  0  0  0  0  0  0  0  0  0  0
   -0.2255   -2.3401    0.9865 C   0  0  1  0  0  0  0  0  0  0  0  0
   -1.2717   -2.8370    2.0189 C   0  0  1  0  0  0  0  0  0  0  0  0
   -2.3448   -3.4664    1.0959 C   0  0  1  0  0  0  0  0  0  0  0  0
   -2.3887   -2.5869   -0.0903 N   0  0  0  0  0  0  0  0  0  0  0  0
   -3.6760   -2.4161   -1.1180 S   0  0  1  0  0  0  0  0  0  0  0  0
   -3.1382   -2.0213   -2.3727 O   0  0  0  0  0  0  0  0  0  0  0  0
   -4.4820   -3.5739   -0.9475 O   0  0  0  0  0  0  0  0  0  0  0  0
   -4.6312   -1.0548   -0.5357 C   0  0  0  0  0  0  0  0  0  0  0  0
   -4.7049    0.1068   -1.2807 C   0  0  0  0  0  0  0  0  0  0  0  0
   -5.4543    1.1751   -0.8238 C   0  0  0  0  0  0  0  0  0  0  0  0
   -5.5342    2.4415   -1.6367 C   0  0  1  0  0  0  0  0  0  0  0  0
   -6.6165    2.3614   -2.5196 F   0  0  0  0  0  0  0  0  0  0  0  0
   -5.7101    3.5344   -0.7813 F   0  0  0  0  0  0  0  0  0  0  0  0
   -4.3502    2.6043   -2.3639 F   0  0  0  0  0  0  0  0  0  0  0  0
   -6.1307    1.0818    0.3780 C   0  0  0  0  0  0  0  0  0  0  0  0
   -6.0578   -0.0797    1.1241 C   0  0  0  0  0  0  0  0  0  0  0  0
   -5.3124   -1.1507    0.6650 C   0  0  0  0  0  0  0  0  0  0  0  0
   -5.2204   -2.6096    1.6014 Cl  0  0  0  0  0  0  0  0  0  0  0  0
    0.4807    2.4008   -0.2334 H   0  0  0  0  0  0  0  0  0  0  0  0
   -1.1221    2.1972   -0.9803 H   0  0  0  0  0  0  0  0  0  0  0  0
   -0.9529    2.1479    0.7909 H   0  0  0  0  0  0  0  0  0  0  0  0
    1.5230   -0.2566    0.6259 H   0  0  0  0  0  0  0  0  0  0  0  0
    1.0498   -1.0418   -0.8999 H   0  0  0  0  0  0  0  0  0  0  0  0
    1.7030    0.6139   -0.9162 H   0  0  0  0  0  0  0  0  0  0  0  0
    0.4387   -3.1517    0.6894 H   0  0  0  0  0  0  0  0  0  0  0  0
    0.3439   -1.5016    1.3875 H   0  0  0  0  0  0  0  0  0  0  0  0
   -0.8400   -3.5856    2.6833 H   0  0  0  0  0  0  0  0  0  0  0  0
   -1.6854   -2.0043    2.5877 H   0  0  0  0  0  0  0  0  0  0  0  0
   -2.0521   -4.4759    0.8073 H   0  0  0  0  0  0  0  0  0  0  0  0
   -3.3139   -3.4795    1.5948 H   0  0  0  0  0  0  0  0  0  0  0  0
   -4.1766    0.1803   -2.2198 H   0  0  0  0  0  0  0  0  0  0  0  0
   -6.7160    1.9166    0.7343 H   0  0  0  0  0  0  0  0  0  0  0  0
   -6.5864   -0.1524    2.0631 H   0  0  0  0  0  0  0  0  0  0  0  0
  1  2  1  0
  1 26  1  6
  1 27  1  0
  1 28  1  0
  2  3  1  0
  2  4  1  0
  3 29  1  1
  3 30  1  0
  3 31  1  0
  4  5  2  0
  4  6  1  0
  6  7  1  6
  6 11  1  0
  6  8  1  0
  8  9  1  0
  8 32  1  6
  8 33  1  0
  9 10  1  0
  9 34  1  1
  9 35  1  0
 10 11  1  0
 10 36  1  6
 10 37  1  0
 12 11  1  1
 12 13  2  0
 12 14  2  0
 12 15  1  0
 15 24  2  0
 15 16  1  0
 16 17  2  0
 16 38  1  0
 17 18  1  0
 17 22  1  0
 18 19  1  6
 18 20  1  0
 18 21  1  0
 22 23  2  0
 22 39  1  0
 23 24  1  0
 23 40  1  0
 24 25  1  0
M  END
$$$$
