ZINC000007375556
     RDKit          3D

 37 38  0  0  0  0  0  0  0  0999 V2000
    0.0644    1.1162    0.3587 N   0  0  0  0  0  0  0  0  0  0  0  0
    0.1252   -0.2088    0.1196 C   0  0  0  0  0  0  0  0  0  0  0  0
    1.1916   -0.7329   -0.1233 O   0  0  0  0  0  0  0  0  0  0  0  0
   -1.1320   -1.0391    0.1540 C   0  0  1  0  0  0  0  0  0  0  0  0
   -2.1165   -0.5174   -0.8951 C   0  0  1  0  0  0  0  0  0  0  0  0
   -3.4063   -1.3416   -0.8337 C   0  0  1  0  0  0  0  0  0  0  0  0
   -3.0663   -2.7635   -0.9796 N   0  0  0  0  0  0  0  0  0  0  0  0
   -3.8008   -3.6921   -2.1375 S   0  0  1  0  0  0  0  0  0  0  0  0
   -3.8612   -5.0120   -1.6145 O   0  0  0  0  0  0  0  0  0  0  0  0
   -4.9494   -2.9708   -2.5613 O   0  0  0  0  0  0  0  0  0  0  0  0
   -2.7136   -3.7550   -3.5227 C   0  0  0  0  0  0  0  0  0  0  0  0
   -2.1071   -4.9467   -3.8717 C   0  0  0  0  0  0  0  0  0  0  0  0
   -1.2540   -4.9962   -4.9585 C   0  0  0  0  0  0  0  0  0  0  0  0
   -0.5929   -6.2960   -5.3386 C   0  0  1  0  0  0  0  0  0  0  0  0
   -1.4071   -6.9864   -6.2428 F   0  0  0  0  0  0  0  0  0  0  0  0
    0.6457   -6.0329   -5.9334 F   0  0  0  0  0  0  0  0  0  0  0  0
   -0.4036   -7.0755   -4.1924 F   0  0  0  0  0  0  0  0  0  0  0  0
   -1.0075   -3.8540   -5.6969 C   0  0  0  0  0  0  0  0  0  0  0  0
   -1.6136   -2.6614   -5.3488 C   0  0  0  0  0  0  0  0  0  0  0  0
   -2.4714   -2.6124   -4.2647 C   0  0  0  0  0  0  0  0  0  0  0  0
   -3.2329   -1.1151   -3.8269 Cl  0  0  0  0  0  0  0  0  0  0  0  0
   -2.0619   -3.3458   -0.0791 C   0  0  1  0  0  0  0  0  0  0  0  0
   -0.7872   -2.4991   -0.1490 C   0  0  1  0  0  0  0  0  0  0  0  0
    0.8735    1.6506    0.3366 H   0  0  0  0  0  0  0  0  0  0  0  0
   -0.7891    1.5360    0.5490 H   0  0  0  0  0  0  0  0  0  0  0  0
   -1.5854   -0.9708    1.1429 H   0  0  0  0  0  0  0  0  0  0  0  0
   -2.3435    0.5292   -0.6923 H   0  0  0  0  0  0  0  0  0  0  0  0
   -1.6735   -0.6084   -1.8869 H   0  0  0  0  0  0  0  0  0  0  0  0
   -3.8979   -1.1800    0.1257 H   0  0  0  0  0  0  0  0  0  0  0  0
   -4.0716   -1.0400   -1.6428 H   0  0  0  0  0  0  0  0  0  0  0  0
   -2.2993   -5.8394   -3.2951 H   0  0  0  0  0  0  0  0  0  0  0  0
   -0.3410   -3.8933   -6.5458 H   0  0  0  0  0  0  0  0  0  0  0  0
   -1.4210   -1.7690   -5.9259 H   0  0  0  0  0  0  0  0  0  0  0  0
   -2.4438   -3.3476    0.9418 H   0  0  0  0  0  0  0  0  0  0  0  0
   -1.8401   -4.3666   -0.3904 H   0  0  0  0  0  0  0  0  0  0  0  0
   -0.3567   -2.5715   -1.1478 H   0  0  0  0  0  0  0  0  0  0  0  0
   -0.0681   -2.8629    0.5849 H   0  0  0  0  0  0  0  0  0  0  0  0
  1  2  1  0
  1 24  1  0
  1 25  1  0
  2  3  2  0
  2  4  1  0
  4 23  1  0
  4  5  1  0
  4 26  1  1
  5  6  1  0
  5 27  1  1
  5 28  1  0
  6  7  1  0
  6 29  1  1
  6 30  1  0
  8  7  1  1
  7 22  1  0
  8  9  2  0
  8 10  2  0
  8 11  1  0
 11 20  2  0
 11 12  1  0
 12 13  2  0
 12 31  1  0
 13 14  1  0
 13 18  1  0
 14 15  1  6
 14 16  1  0
 14 17  1  0
 18 19  2  0
 18 32  1  0
 19 20  1  0
 19 33  1  0
 20 21  1  0
 22 23  1  0
 22 34  1  1
 22 35  1  0
 23 36  1  6
 23 37  1  0
M  END
$$$$
