ZINC000042036368
     RDKit          3D

 41 43  0  0  1  0  0  0  0  0999 V2000
   -0.0173    1.4248    0.0099 C   0  0  1  0  0  0  0  0  0  0  0  0
    0.0021   -0.0041    0.0020 O   0  0  0  0  0  0  0  0  0  0  0  0
   -1.2953   -0.6030    0.0112 C   0  0  1  0  0  0  0  0  0  0  0  0
   -1.1560   -2.1035    0.0018 C   0  0  0  0  0  0  0  0  0  0  0  0
   -0.0541   -2.6101   -0.0114 O   0  0  0  0  0  0  0  0  0  0  0  0
   -2.2558   -2.8825    0.0081 N   0  0  0  0  0  0  0  0  0  0  0  0
   -3.5974   -2.2834    0.0180 C   0  0  1  0  0  0  0  0  0  0  0  0
   -4.4063   -2.8665   -1.1449 C   0  0  1  0  0  0  0  0  0  0  0  0
   -4.3993   -4.3940   -1.0506 C   0  0  1  0  0  0  0  0  0  0  0  0
   -2.9614   -4.9068   -1.1575 C   0  0  2  0  0  0  0  0  0  0  0  0
   -2.5276   -4.5794   -2.1024 H   0  0  0  0  0  0  0  0  0  0  0  0
   -2.9586   -6.4126   -1.0978 C   0  0  0  0  0  0  0  0  0  0  0  0
   -3.4072   -7.1485   -0.1138 N   0  0  0  0  0  0  0  0  0  0  0  0
   -3.2541   -8.3971   -0.3845 N   0  0  0  0  0  0  0  0  0  0  0  0
   -2.6905   -8.5247   -1.5747 C   0  0  0  0  0  0  0  0  0  0  0  0
   -2.3029   -9.6352   -2.3490 C   0  0  0  0  0  0  0  0  0  0  0  0
   -1.7332   -9.4295   -3.5669 C   0  0  0  0  0  0  0  0  0  0  0  0
   -1.5400   -8.1179   -4.0338 C   0  0  0  0  0  0  0  0  0  0  0  0
   -0.9094   -7.8881   -5.3830 C   0  0  1  0  0  0  0  0  0  0  0  0
    0.4837   -7.9065   -5.2559 F   0  0  0  0  0  0  0  0  0  0  0  0
   -1.3107   -8.8986   -6.2635 F   0  0  0  0  0  0  0  0  0  0  0  0
   -1.3158   -6.6461   -5.8823 F   0  0  0  0  0  0  0  0  0  0  0  0
   -1.9165   -7.0633   -3.2806 C   0  0  0  0  0  0  0  0  0  0  0  0
   -2.4943   -7.2550   -2.0602 N   0  0  0  0  0  0  0  0  0  0  0  0
   -2.1361   -4.3468   -0.0009 C   0  0  1  0  0  0  0  0  0  0  0  0
    1.0053    1.8021    0.0021 H   0  0  0  0  0  0  0  0  0  0  0  0
   -0.5445    1.7859   -0.8732 H   0  0  0  0  0  0  0  0  0  0  0  0
   -0.5275    1.7763    0.9067 H   0  0  0  0  0  0  0  0  0  0  0  0
   -1.8320   -0.2936    0.9080 H   0  0  0  0  0  0  0  0  0  0  0  0
   -1.8490   -0.2840   -0.8718 H   0  0  0  0  0  0  0  0  0  0  0  0
   -4.0937   -2.5145    0.9605 H   0  0  0  0  0  0  0  0  0  0  0  0
   -3.5159   -1.2028   -0.0991 H   0  0  0  0  0  0  0  0  0  0  0  0
   -5.4327   -2.5035   -1.0921 H   0  0  0  0  0  0  0  0  0  0  0  0
   -3.9590   -2.5583   -2.0898 H   0  0  0  0  0  0  0  0  0  0  0  0
   -4.8241   -4.7008   -0.0948 H   0  0  0  0  0  0  0  0  0  0  0  0
   -4.9948   -4.8107   -1.8629 H   0  0  0  0  0  0  0  0  0  0  0  0
   -2.4559  -10.6386   -1.9800 H   0  0  0  0  0  0  0  0  0  0  0  0
   -1.4301  -10.2706   -4.1726 H   0  0  0  0  0  0  0  0  0  0  0  0
   -1.7634   -6.0597   -3.6492 H   0  0  0  0  0  0  0  0  0  0  0  0
   -1.0908   -4.6285   -0.1279 H   0  0  0  0  0  0  0  0  0  0  0  0
   -2.5117   -4.7441    0.9420 H   0  0  0  0  0  0  0  0  0  0  0  0
  1  2  1  0
  1 26  1  6
  1 27  1  0
  1 28  1  0
  2  3  1  0
  3  4  1  0
  3 29  1  1
  3 30  1  0
  4  5  2  0
  4  6  1  0
  6 25  1  0
  6  7  1  0
  7  8  1  0
  7 31  1  1
  7 32  1  0
  8  9  1  0
  8 33  1  6
  8 34  1  0
  9 10  1  0
  9 35  1  1
  9 36  1  0
 10 11  1  6
 10 12  1  0
 10 25  1  0
 12 24  1  0
 12 13  2  0
 13 14  1  0
 14 15  2  0
 15 24  1  0
 15 16  1  0
 16 17  2  0
 16 37  1  0
 17 18  1  0
 17 38  1  0
 18 19  1  0
 18 23  2  0
 19 20  1  1
 19 21  1  0
 19 22  1  0
 23 24  1  0
 23 39  1  0
 25 40  1  6
 25 41  1  0
M  END
$$$$
