ZINC000408561896
     RDKit          3D

 56 58  0  0  1  0  0  0  0  0999 V2000
    0.6340    1.5968   -0.0984 C   0  0  1  0  0  0  0  0  0  0  0  0
    0.2502    0.1409   -0.1617 C   0  0  0  0  0  0  0  0  0  0  0  0
    0.1652   -0.6027    1.0006 C   0  0  0  0  0  0  0  0  0  0  0  0
   -0.1869   -1.9382    0.9425 C   0  0  0  0  0  0  0  0  0  0  0  0
   -0.2790   -2.7489    2.2096 C   0  0  1  0  0  0  0  0  0  0  0  0
   -0.4549   -2.5299   -0.2777 C   0  0  0  0  0  0  0  0  0  0  0  0
   -0.9042   -4.2320   -0.3516 S   0  0  1  0  0  0  0  0  0  0  0  0
   -1.5141   -4.5405    0.8943 O   0  0  0  0  0  0  0  0  0  0  0  0
   -1.5518   -4.4221   -1.6021 O   0  0  0  0  0  0  0  0  0  0  0  0
    0.5000   -5.1075   -0.4143 N   0  0  0  0  0  0  0  0  0  0  0  0
    1.2034   -5.3039   -1.6893 C   0  0  1  0  0  0  0  0  0  0  0  0
    2.6591   -4.8566   -1.5233 C   0  0  1  0  0  0  0  0  0  0  0  0
    3.2846   -5.5981   -0.3396 C   0  0  1  0  0  0  0  0  0  0  0  0
    2.5235   -5.2508    0.9419 C   0  0  2  0  0  0  0  0  0  0  0  0
    2.5566   -4.1734    1.1040 H   0  0  0  0  0  0  0  0  0  0  0  0
    3.1606   -5.9553    2.1118 C   0  0  0  0  0  0  0  0  0  0  0  0
    2.5135   -6.7396    2.7730 O   0  0  0  0  0  0  0  0  0  0  0  0
    4.4494   -5.7139    2.4235 N   0  0  0  0  0  0  0  0  0  0  0  0
    5.0146   -6.2964    3.5633 C   0  0  0  0  0  0  0  0  0  0  0  0
    5.9487   -5.5940    4.3134 C   0  0  0  0  0  0  0  0  0  0  0  0
    6.5047   -6.1718    5.4378 C   0  0  0  0  0  0  0  0  0  0  0  0
    6.1325   -7.4486    5.8168 C   0  0  0  0  0  0  0  0  0  0  0  0
    6.7416   -8.0762    7.0441 C   0  0  1  0  0  0  0  0  0  0  0  0
    5.9594   -7.7682    8.1624 F   0  0  0  0  0  0  0  0  0  0  0  0
    6.7949   -9.4645    6.8803 F   0  0  0  0  0  0  0  0  0  0  0  0
    8.0359   -7.5784    7.2289 F   0  0  0  0  0  0  0  0  0  0  0  0
    5.2023   -8.1505    5.0723 C   0  0  0  0  0  0  0  0  0  0  0  0
    4.6383   -7.5760    3.9500 C   0  0  0  0  0  0  0  0  0  0  0  0
    1.0695   -5.6974    0.8048 C   0  0  1  0  0  0  0  0  0  0  0  0
   -0.3708   -1.7861   -1.4398 C   0  0  0  0  0  0  0  0  0  0  0  0
   -0.6635   -2.4311   -2.7700 C   0  0  1  0  0  0  0  0  0  0  0  0
   -0.0224   -0.4497   -1.3814 C   0  0  0  0  0  0  0  0  0  0  0  0
   -0.2637    2.2047    0.0139 H   0  0  0  0  0  0  0  0  0  0  0  0
    1.2935    1.7620    0.7536 H   0  0  0  0  0  0  0  0  0  0  0  0
    1.1499    1.8768   -1.0168 H   0  0  0  0  0  0  0  0  0  0  0  0
    0.3743   -0.1403    1.9539 H   0  0  0  0  0  0  0  0  0  0  0  0
   -1.3142   -2.7749    2.5497 H   0  0  0  0  0  0  0  0  0  0  0  0
    0.0658   -3.7648    2.0167 H   0  0  0  0  0  0  0  0  0  0  0  0
    0.3448   -2.2933    2.9786 H   0  0  0  0  0  0  0  0  0  0  0  0
    1.1742   -6.3583   -1.9640 H   0  0  0  0  0  0  0  0  0  0  0  0
    0.7244   -4.7082   -2.4664 H   0  0  0  0  0  0  0  0  0  0  0  0
    3.2160   -5.0861   -2.4317 H   0  0  0  0  0  0  0  0  0  0  0  0
    2.6909   -3.7829   -1.3379 H   0  0  0  0  0  0  0  0  0  0  0  0
    3.2302   -6.6726   -0.5144 H   0  0  0  0  0  0  0  0  0  0  0  0
    4.3278   -5.2999   -0.2346 H   0  0  0  0  0  0  0  0  0  0  0  0
    4.9852   -5.1363    1.8576 H   0  0  0  0  0  0  0  0  0  0  0  0
    6.2403   -4.5971    4.0175 H   0  0  0  0  0  0  0  0  0  0  0  0
    7.2312   -5.6261    6.0216 H   0  0  0  0  0  0  0  0  0  0  0  0
    4.9137   -9.1474    5.3709 H   0  0  0  0  0  0  0  0  0  0  0  0
    3.9119   -8.1248    3.3690 H   0  0  0  0  0  0  0  0  0  0  0  0
    0.5015   -5.3641    1.6734 H   0  0  0  0  0  0  0  0  0  0  0  0
    1.0263   -6.7841    0.7325 H   0  0  0  0  0  0  0  0  0  0  0  0
   -1.7391   -2.4278   -2.9466 H   0  0  0  0  0  0  0  0  0  0  0  0
   -0.1636   -1.8734   -3.5620 H   0  0  0  0  0  0  0  0  0  0  0  0
   -0.2995   -3.4585   -2.7636 H   0  0  0  0  0  0  0  0  0  0  0  0
    0.0432    0.1314   -2.2894 H   0  0  0  0  0  0  0  0  0  0  0  0
  1  2  1  0
  1 33  1  1
  1 34  1  0
  1 35  1  0
  2 32  2  0
  2  3  1  0
  3  4  2  0
  3 36  1  0
  4  5  1  0
  4  6  1  0
  5 37  1  1
  5 38  1  0
  5 39  1  0
  6  7  1  0
  6 30  2  0
  7  8  2  0
  7  9  2  0
  7 10  1  6
 10 29  1  0
 10 11  1  0
 11 12  1  0
 11 40  1  6
 11 41  1  0
 12 13  1  0
 12 42  1  6
 12 43  1  0
 13 14  1  0
 13 44  1  6
 13 45  1  0
 14 15  1  1
 14 16  1  0
 14 29  1  0
 16 17  2  0
 16 18  1  0
 18 19  1  0
 18 46  1  0
 19 28  2  0
 19 20  1  0
 20 21  2  0
 20 47  1  0
 21 22  1  0
 21 48  1  0
 22 23  1  0
 22 27  2  0
 23 24  1  1
 23 25  1  0
 23 26  1  0
 27 28  1  0
 27 49  1  0
 28 50  1  0
 29 51  1  1
 29 52  1  0
 30 31  1  0
 30 32  1  0
 31 53  1  6
 31 54  1  0
 31 55  1  0
 32 56  1  0
M  END
$$$$
