ZINC000096245398
     RDKit          3D

 50 53  0  0  1  0  0  0  0  0999 V2000
    0.0021   -0.0041    0.0020 O   0  0  0  0  0  0  0  0  0  0  0  0
   -0.0172    1.4168    0.0098 S   0  0  1  0  0  0  0  0  0  0  0  0
    1.1617    2.2101    0.0028 O   0  0  0  0  0  0  0  0  0  0  0  0
   -0.9567    1.9094   -1.3970 C   0  0  0  0  0  0  0  0  0  0  0  0
   -1.8848    1.0442   -1.9458 C   0  0  0  0  0  0  0  0  0  0  0  0
   -2.6219    1.4307   -3.0496 C   0  0  0  0  0  0  0  0  0  0  0  0
   -2.4313    2.6825   -3.6042 C   0  0  0  0  0  0  0  0  0  0  0  0
   -1.5039    3.5480   -3.0548 C   0  0  0  0  0  0  0  0  0  0  0  0
   -0.7699    3.1631   -1.9485 C   0  0  0  0  0  0  0  0  0  0  0  0
   -0.8748    1.8654    1.3536 N   0  0  0  0  0  0  0  0  0  0  0  0
   -0.7770    3.1784    2.0683 C   0  0  1  0  0  0  0  0  0  0  0  0
   -2.1505    3.3002    2.6978 C   0  0  2  0  0  0  0  0  0  0  0  0
   -2.9187    3.4804    1.9458 H   0  0  0  0  0  0  0  0  0  0  0  0
   -2.4286    4.0743    3.9690 C   0  0  1  0  0  0  0  0  0  0  0  0
   -3.5892    3.3238    4.5542 N   0  0  2  0  0  0  0  0  0  0  0  0
   -4.4554    3.7506    4.2615 H   0  0  0  0  0  0  0  0  0  0  0  0
   -3.4993    3.3317    6.0205 C   0  0  1  0  0  0  0  0  0  0  0  0
   -4.5973    2.4746    6.5957 C   0  0  0  0  0  0  0  0  0  0  0  0
   -5.8261    3.0333    6.8934 C   0  0  0  0  0  0  0  0  0  0  0  0
   -6.8333    2.2471    7.4211 C   0  0  0  0  0  0  0  0  0  0  0  0
   -6.6117    0.9021    7.6506 C   0  0  0  0  0  0  0  0  0  0  0  0
   -7.7095    0.0450    8.2263 C   0  0  1  0  0  0  0  0  0  0  0  0
   -8.4716   -0.4976    7.1861 F   0  0  0  0  0  0  0  0  0  0  0  0
   -7.1462   -0.9898    8.9807 F   0  0  0  0  0  0  0  0  0  0  0  0
   -8.5299    0.8269    9.0466 F   0  0  0  0  0  0  0  0  0  0  0  0
   -5.3833    0.3430    7.3516 C   0  0  0  0  0  0  0  0  0  0  0  0
   -4.3774    1.1284    6.8203 C   0  0  0  0  0  0  0  0  0  0  0  0
   -3.5201    1.9162    4.0478 C   0  0  1  0  0  0  0  0  0  0  0  0
   -2.2287    1.8342    3.2925 C   0  0  1  0  0  0  0  0  0  0  0  0
   -1.4086    1.7365    4.0038 H   0  0  0  0  0  0  0  0  0  0  0  0
   -1.8921    1.0359    2.0701 C   0  0  1  0  0  0  0  0  0  0  0  0
   -2.0336    0.0662   -1.5125 H   0  0  0  0  0  0  0  0  0  0  0  0
   -3.3464    0.7545   -3.4788 H   0  0  0  0  0  0  0  0  0  0  0  0
   -3.0067    2.9841   -4.4670 H   0  0  0  0  0  0  0  0  0  0  0  0
   -1.3548    4.5258   -3.4884 H   0  0  0  0  0  0  0  0  0  0  0  0
   -0.0453    3.8393   -1.5193 H   0  0  0  0  0  0  0  0  0  0  0  0
   -0.0002    3.1485    2.8324 H   0  0  0  0  0  0  0  0  0  0  0  0
   -0.5979    3.9917    1.3651 H   0  0  0  0  0  0  0  0  0  0  0  0
   -1.5690    4.0420    4.6384 H   0  0  0  0  0  0  0  0  0  0  0  0
   -2.7069    5.1036    3.7431 H   0  0  0  0  0  0  0  0  0  0  0  0
   -2.5311    2.9361    6.3273 H   0  0  0  0  0  0  0  0  0  0  0  0
   -3.6068    4.3531    6.3855 H   0  0  0  0  0  0  0  0  0  0  0  0
   -5.9992    4.0842    6.7141 H   0  0  0  0  0  0  0  0  0  0  0  0
   -7.7931    2.6838    7.6544 H   0  0  0  0  0  0  0  0  0  0  0  0
   -5.2103   -0.7079    7.5305 H   0  0  0  0  0  0  0  0  0  0  0  0
   -3.4177    0.6917    6.5867 H   0  0  0  0  0  0  0  0  0  0  0  0
   -3.5287    1.2120    4.8797 H   0  0  0  0  0  0  0  0  0  0  0  0
   -4.3493    1.7150    3.3696 H   0  0  0  0  0  0  0  0  0  0  0  0
   -2.7795    0.8901    1.4542 H   0  0  0  0  0  0  0  0  0  0  0  0
   -1.4595    0.0753    2.3498 H   0  0  0  0  0  0  0  0  0  0  0  0
  1  2  2  0
  2  3  2  0
  2  4  1  0
  2 10  1  1
  4  9  2  0
  4  5  1  0
  5  6  2  0
  5 32  1  0
  6  7  1  0
  6 33  1  0
  7  8  2  0
  7 34  1  0
  8  9  1  0
  8 35  1  0
  9 36  1  0
 10 31  1  0
 10 11  1  0
 11 12  1  0
 11 37  1  1
 11 38  1  0
 12 13  1  6
 12 29  1  0
 12 14  1  0
 14 15  1  0
 14 39  1  1
 14 40  1  0
 15 16  1  1
 15 17  1  0
 15 28  1  0
 17 18  1  0
 17 41  1  6
 17 42  1  0
 18 27  2  0
 18 19  1  0
 19 20  2  0
 19 43  1  0
 20 21  1  0
 20 44  1  0
 21 22  1  0
 21 26  2  0
 22 23  1  6
 22 24  1  0
 22 25  1  0
 26 27  1  0
 26 45  1  0
 27 46  1  0
 28 29  1  0
 28 47  1  1
 28 48  1  0
 29 30  1  1
 29 31  1  0
 31 49  1  6
 31 50  1  0
M  CHG  1  15   1
M  END
$$$$
