ZINC000028208433
     RDKit          3D

 55 56  0  0  1  0  0  0  0  0999 V2000
   -1.3477   -4.7024    2.4738 C   0  0  1  0  0  0  0  0  0  0  0  0
    0.0833   -4.1735    2.5887 C   0  0  2  0  0  0  0  0  0  0  0  0
    0.6696   -4.5243    1.7394 H   0  0  0  0  0  0  0  0  0  0  0  0
    0.7123   -4.6822    3.8874 C   0  0  1  0  0  0  0  0  0  0  0  0
    2.1812   -4.2578    3.9431 C   0  0  1  0  0  0  0  0  0  0  0  0
    2.8007   -4.7588    5.2223 C   0  0  0  0  0  0  0  0  0  0  0  0
    2.7754   -3.9705    6.3575 C   0  0  0  0  0  0  0  0  0  0  0  0
    3.3394   -4.4321    7.5322 C   0  0  0  0  0  0  0  0  0  0  0  0
    3.9379   -5.6776    7.5688 C   0  0  0  0  0  0  0  0  0  0  0  0
    3.9677   -6.4637    6.4321 C   0  0  0  0  0  0  0  0  0  0  0  0
    3.3991   -6.0043    5.2589 C   0  0  0  0  0  0  0  0  0  0  0  0
    0.0635   -2.7087    2.5968 N   0  0  0  0  0  0  0  0  0  0  0  0
    0.0432   -2.0286    1.4333 C   0  0  0  0  0  0  0  0  0  0  0  0
    0.0414   -2.6293    0.3797 O   0  0  0  0  0  0  0  0  0  0  0  0
    0.0228   -0.5218    1.4416 C   0  0  2  0  0  0  0  0  0  0  0  0
    0.0021   -0.0041    0.0020 C   0  0  2  0  0  0  0  0  0  0  0  0
   -0.0184    1.5028    0.0103 C   0  0  0  0  0  0  0  0  0  0  0  0
   -1.2248    2.1776    0.0197 C   0  0  0  0  0  0  0  0  0  0  0  0
   -1.2435    3.5598    0.0322 C   0  0  0  0  0  0  0  0  0  0  0  0
   -0.0559    4.2672    0.0251 C   0  0  0  0  0  0  0  0  0  0  0  0
   -0.0797    6.0290    0.0349 S   0  0  1  0  0  0  0  0  0  0  0  0
   -1.3295    6.4102    0.5934 O   0  0  0  0  0  0  0  0  0  0  0  0
    1.1696    6.4443    0.5696 O   0  0  0  0  0  0  0  0  0  0  0  0
   -0.1015    6.5277   -1.5441 N   0  0  0  0  0  0  0  0  0  0  0  0
   -1.3797    6.7310   -2.2305 C   0  0  1  0  0  0  0  0  0  0  0  0
    1.1574    6.7655   -2.2546 C   0  0  1  0  0  0  0  0  0  0  0  0
    1.1505    3.5924    0.0100 C   0  0  0  0  0  0  0  0  0  0  0  0
    1.1693    2.2102    0.0028 C   0  0  0  0  0  0  0  0  0  0  0  0
   -1.9340   -4.3516    3.3231 H   0  0  0  0  0  0  0  0  0  0  0  0
   -1.7958   -4.3400    1.5486 H   0  0  0  0  0  0  0  0  0  0  0  0
   -1.3330   -5.7922    2.4678 H   0  0  0  0  0  0  0  0  0  0  0  0
    0.1794   -4.2594    4.7391 H   0  0  0  0  0  0  0  0  0  0  0  0
    0.6468   -5.7697    3.9212 H   0  0  0  0  0  0  0  0  0  0  0  0
    2.7141   -4.6805    3.0914 H   0  0  0  0  0  0  0  0  0  0  0  0
    2.2467   -3.1703    3.9093 H   0  0  0  0  0  0  0  0  0  0  0  0
    2.3117   -2.9955    6.3278 H   0  0  0  0  0  0  0  0  0  0  0  0
    3.3164   -3.8177    8.4201 H   0  0  0  0  0  0  0  0  0  0  0  0
    4.3824   -6.0364    8.4853 H   0  0  0  0  0  0  0  0  0  0  0  0
    4.4356   -7.4367    6.4606 H   0  0  0  0  0  0  0  0  0  0  0  0
    3.4228   -6.6184    4.3707 H   0  0  0  0  0  0  0  0  0  0  0  0
    0.0649   -2.2282    3.4394 H   0  0  0  0  0  0  0  0  0  0  0  0
    0.9126   -0.1491    1.9490 H   0  0  0  0  0  0  0  0  0  0  0  0
   -0.8671   -0.1733    1.9659 H   0  0  0  0  0  0  0  0  0  0  0  0
   -0.8878   -0.3767   -0.5053 H   0  0  0  0  0  0  0  0  0  0  0  0
    0.8920   -0.3525   -0.5222 H   0  0  0  0  0  0  0  0  0  0  0  0
   -2.1527    1.6249    0.0211 H   0  0  0  0  0  0  0  0  0  0  0  0
   -2.1860    4.0870    0.0437 H   0  0  0  0  0  0  0  0  0  0  0  0
   -2.1988    6.5064   -1.5472 H   0  0  0  0  0  0  0  0  0  0  0  0
   -1.4547    7.7675   -2.5593 H   0  0  0  0  0  0  0  0  0  0  0  0
   -1.4367    6.0703   -3.0956 H   0  0  0  0  0  0  0  0  0  0  0  0
    1.4800    5.8447   -2.7404 H   0  0  0  0  0  0  0  0  0  0  0  0
    1.0093    7.5405   -3.0066 H   0  0  0  0  0  0  0  0  0  0  0  0
    1.9195    7.0884   -1.5453 H   0  0  0  0  0  0  0  0  0  0  0  0
    2.0784    4.1450    0.0041 H   0  0  0  0  0  0  0  0  0  0  0  0
    2.1118    1.6830   -0.0091 H   0  0  0  0  0  0  0  0  0  0  0  0
  1  2  1  0
  1 29  1  1
  1 30  1  0
  1 31  1  0
  2  3  1  6
  2  4  1  0
  2 12  1  0
  4  5  1  0
  4 32  1  1
  4 33  1  0
  5  6  1  0
  5 34  1  6
  5 35  1  0
  6 11  2  0
  6  7  1  0
  7  8  2  0
  7 36  1  0
  8  9  1  0
  8 37  1  0
  9 10  2  0
  9 38  1  0
 10 11  1  0
 10 39  1  0
 11 40  1  0
 12 13  1  0
 12 41  1  0
 13 14  2  0
 13 15  1  0
 15 16  1  0
 15 42  1  1
 15 43  1  0
 16 17  1  0
 16 44  1  6
 16 45  1  0
 17 28  2  0
 17 18  1  0
 18 19  2  0
 18 46  1  0
 19 20  1  0
 19 47  1  0
 20 21  1  0
 20 27  2  0
 21 22  2  0
 21 23  2  0
 21 24  1  6
 24 25  1  0
 24 26  1  0
 25 48  1  1
 25 49  1  0
 25 50  1  0
 26 51  1  6
 26 52  1  0
 26 53  1  0
 27 28  1  0
 27 54  1  0
 28 55  1  0
M  END
$$$$
