ZINC000009439956
     RDKit          3D

 60 62  0  0  1  0  0  0  0  0999 V2000
   -0.0530    1.5801   -0.0439 C   0  0  1  0  0  0  0  0  0  0  0  0
   -0.0391    0.0501   -0.0482 C   0  0  1  0  0  0  0  0  0  0  0  0
    0.6711   -0.4423   -1.2828 C   0  0  0  0  0  0  0  0  0  0  0  0
   -0.0430   -0.6700   -2.4449 C   0  0  0  0  0  0  0  0  0  0  0  0
    0.6050   -1.1213   -3.5781 C   0  0  0  0  0  0  0  0  0  0  0  0
    1.9751   -1.3459   -3.5496 C   0  0  0  0  0  0  0  0  0  0  0  0
    2.6346   -1.8026   -4.6961 N   0  0  0  0  0  0  0  0  0  0  0  0
    4.0887   -1.9696   -4.8038 C   0  0  1  0  0  0  0  0  0  0  0  0
    4.3093   -2.8788   -6.0330 C   0  0  2  0  0  0  0  0  0  0  0  0
    4.3625   -3.9269   -5.7385 H   0  0  0  0  0  0  0  0  0  0  0  0
    5.5466   -2.4709   -6.7905 C   0  0  0  0  0  0  0  0  0  0  0  0
    6.2119   -1.5393   -6.4040 O   0  0  0  0  0  0  0  0  0  0  0  0
    5.9096   -3.1425   -7.8945 O   0  0  0  0  0  0  0  0  0  0  0  0
    7.1124   -2.6942   -8.5732 C   0  0  1  0  0  0  0  0  0  0  0  0
    7.3600   -3.5605   -9.7812 C   0  0  0  0  0  0  0  0  0  0  0  0
    6.5978   -4.4666  -10.0443 O   0  0  0  0  0  0  0  0  0  0  0  0
    8.4285   -3.3285  -10.5693 N   0  0  0  0  0  0  0  0  0  0  0  0
    8.5972   -4.0574  -11.7517 C   0  0  0  0  0  0  0  0  0  0  0  0
    9.8720   -4.4050  -12.1790 C   0  0  0  0  0  0  0  0  0  0  0  0
   10.0351   -5.1244  -13.3466 C   0  0  0  0  0  0  0  0  0  0  0  0
    8.9308   -5.4982  -14.0902 C   0  0  0  0  0  0  0  0  0  0  0  0
    9.1432   -6.4155  -15.5795 S   0  0  1  0  0  0  0  0  0  0  0  0
    7.9856   -6.1748  -16.3676 O   0  0  0  0  0  0  0  0  0  0  0  0
   10.4624   -6.1443  -16.0330 O   0  0  0  0  0  0  0  0  0  0  0  0
    9.1084   -8.0211  -15.1755 N   0  0  0  0  0  0  0  0  0  0  0  0
    7.8358   -8.7467  -15.1667 C   0  0  1  0  0  0  0  0  0  0  0  0
   10.3502   -8.7158  -14.8270 C   0  0  1  0  0  0  0  0  0  0  0  0
    7.6600   -5.1540  -13.6672 C   0  0  0  0  0  0  0  0  0  0  0  0
    7.4898   -4.4396  -12.4975 C   0  0  0  0  0  0  0  0  0  0  0  0
    3.0346   -2.6013   -6.8632 C   0  0  1  0  0  0  0  0  0  0  0  0
    2.0173   -2.1503   -5.8384 C   0  0  0  0  0  0  0  0  0  0  0  0
    0.8195   -2.1024   -6.0231 O   0  0  0  0  0  0  0  0  0  0  0  0
    2.6894   -1.1158   -2.3811 C   0  0  0  0  0  0  0  0  0  0  0  0
    2.0363   -0.6599   -1.2528 C   0  0  0  0  0  0  0  0  0  0  0  0
    0.9713    1.9527   -0.0468 H   0  0  0  0  0  0  0  0  0  0  0  0
   -0.5736    1.9412   -0.9309 H   0  0  0  0  0  0  0  0  0  0  0  0
   -0.5667    1.9362    0.8491 H   0  0  0  0  0  0  0  0  0  0  0  0
    0.4814   -0.3110    0.8388 H   0  0  0  0  0  0  0  0  0  0  0  0
   -1.0635   -0.3225   -0.0454 H   0  0  0  0  0  0  0  0  0  0  0  0
   -1.1085   -0.4951   -2.4664 H   0  0  0  0  0  0  0  0  0  0  0  0
    0.0466   -1.2996   -4.4852 H   0  0  0  0  0  0  0  0  0  0  0  0
    4.5690   -1.0034   -4.9582 H   0  0  0  0  0  0  0  0  0  0  0  0
    4.4811   -2.4473   -3.9060 H   0  0  0  0  0  0  0  0  0  0  0  0
    6.9870   -1.6584   -8.8885 H   0  0  0  0  0  0  0  0  0  0  0  0
    7.9615   -2.7670   -7.8937 H   0  0  0  0  0  0  0  0  0  0  0  0
    9.0805   -2.6562  -10.3167 H   0  0  0  0  0  0  0  0  0  0  0  0
   10.7349   -4.1127  -11.5991 H   0  0  0  0  0  0  0  0  0  0  0  0
   11.0263   -5.3951  -13.6794 H   0  0  0  0  0  0  0  0  0  0  0  0
    7.6566   -9.1780  -16.1515 H   0  0  0  0  0  0  0  0  0  0  0  0
    7.8767   -9.5429  -14.4233 H   0  0  0  0  0  0  0  0  0  0  0  0
    7.0272   -8.0591  -14.9185 H   0  0  0  0  0  0  0  0  0  0  0  0
   11.1861   -8.0190  -14.8889 H   0  0  0  0  0  0  0  0  0  0  0  0
   10.2761   -9.1050  -13.8115 H   0  0  0  0  0  0  0  0  0  0  0  0
   10.5124   -9.5403  -15.5212 H   0  0  0  0  0  0  0  0  0  0  0  0
    6.7995   -5.4474  -14.2502 H   0  0  0  0  0  0  0  0  0  0  0  0
    6.4971   -4.1710  -12.1677 H   0  0  0  0  0  0  0  0  0  0  0  0
    3.2195   -1.8146   -7.5946 H   0  0  0  0  0  0  0  0  0  0  0  0
    2.6959   -3.5115   -7.3579 H   0  0  0  0  0  0  0  0  0  0  0  0
    3.7550   -1.2895   -2.3559 H   0  0  0  0  0  0  0  0  0  0  0  0
    2.5912   -0.4808   -0.3437 H   0  0  0  0  0  0  0  0  0  0  0  0
  1  2  1  0
  1 35  1  1
  1 36  1  0
  1 37  1  0
  2  3  1  0
  2 38  1  1
  2 39  1  0
  3 34  2  0
  3  4  1  0
  4  5  2  0
  4 40  1  0
  5  6  1  0
  5 41  1  0
  6  7  1  0
  6 33  2  0
  7 31  1  0
  7  8  1  0
  8  9  1  0
  8 42  1  6
  8 43  1  0
  9 10  1  1
  9 11  1  0
  9 30  1  0
 11 12  2  0
 11 13  1  0
 13 14  1  0
 14 15  1  0
 14 44  1  6
 14 45  1  0
 15 16  2  0
 15 17  1  0
 17 18  1  0
 17 46  1  0
 18 29  2  0
 18 19  1  0
 19 20  2  0
 19 47  1  0
 20 21  1  0
 20 48  1  0
 21 22  1  0
 21 28  2  0
 22 23  2  0
 22 24  2  0
 22 25  1  1
 25 26  1  0
 25 27  1  0
 26 49  1  6
 26 50  1  0
 26 51  1  0
 27 52  1  1
 27 53  1  0
 27 54  1  0
 28 29  1  0
 28 55  1  0
 29 56  1  0
 30 31  1  0
 30 57  1  6
 30 58  1  0
 31 32  2  0
 33 34  1  0
 33 59  1  0
 34 60  1  0
M  END
$$$$
