ZINC000012609436
     RDKit          3D

 55 56  0  0  0  0  0  0  0  0999 V2000
   -0.0187    1.5258    0.0104 C   0  0  1  0  0  0  0  0  0  0  0  0
    0.0021   -0.0041    0.0020 C   0  0  1  0  0  0  0  0  0  0  0  0
    0.6878   -0.4765   -1.2033 N   0  0  0  0  0  0  0  0  0  0  0  0
    2.1478   -0.5966   -1.2159 C   0  0  1  0  0  0  0  0  0  0  0  0
    2.5532   -1.9514   -0.6319 C   0  0  1  0  0  0  0  0  0  0  0  0
   -0.1875   -0.8749   -2.5515 S   0  0  1  0  0  0  0  0  0  0  0  0
    0.6166   -1.7761   -3.3001 O   0  0  0  0  0  0  0  0  0  0  0  0
   -1.4970   -1.1925   -2.1004 O   0  0  0  0  0  0  0  0  0  0  0  0
   -0.3375    0.5853   -3.5262 C   0  0  0  0  0  0  0  0  0  0  0  0
   -1.4062    1.4393   -3.3286 C   0  0  0  0  0  0  0  0  0  0  0  0
   -1.5290    2.5873   -4.0904 C   0  0  0  0  0  0  0  0  0  0  0  0
   -0.5801    2.8839   -5.0541 C   0  0  0  0  0  0  0  0  0  0  0  0
   -0.6995    4.0126   -5.8036 O   0  0  0  0  0  0  0  0  0  0  0  0
   -1.8294    4.8478   -5.5433 C   0  0  1  0  0  0  0  0  0  0  0  0
    0.4977    2.0235   -5.2540 C   0  0  0  0  0  0  0  0  0  0  0  0
    1.4602    2.3185   -6.2264 N   0  0  0  0  0  0  0  0  0  0  0  0
    2.5924    1.4126   -6.4349 C   0  0  1  0  0  0  0  0  0  0  0  0
    3.4749    1.9551   -7.5295 C   0  0  0  0  0  0  0  0  0  0  0  0
    3.1864    2.9959   -8.0811 O   0  0  0  0  0  0  0  0  0  0  0  0
    4.5846    1.2835   -7.8954 N   0  0  0  0  0  0  0  0  0  0  0  0
    5.4425    1.8109   -8.9595 C   0  0  1  0  0  0  0  0  0  0  0  0
    6.6072    0.8790   -9.1739 C   0  0  0  0  0  0  0  0  0  0  0  0
    7.7748    1.0551   -8.4552 C   0  0  0  0  0  0  0  0  0  0  0  0
    8.8432    0.2003   -8.6519 C   0  0  0  0  0  0  0  0  0  0  0  0
    8.7438   -0.8309   -9.5671 C   0  0  0  0  0  0  0  0  0  0  0  0
    7.5760   -1.0076  -10.2852 C   0  0  0  0  0  0  0  0  0  0  0  0
    6.5060   -0.1554  -10.0854 C   0  0  0  0  0  0  0  0  0  0  0  0
    0.6171    0.8770   -4.4829 C   0  0  0  0  0  0  0  0  0  0  0  0
    1.0039    1.9031    0.0027 H   0  0  0  0  0  0  0  0  0  0  0  0
   -0.5459    1.8868   -0.8726 H   0  0  0  0  0  0  0  0  0  0  0  0
   -0.5289    1.8773    0.9072 H   0  0  0  0  0  0  0  0  0  0  0  0
    0.5293   -0.3651    0.8851 H   0  0  0  0  0  0  0  0  0  0  0  0
   -1.0205   -0.3814    0.0098 H   0  0  0  0  0  0  0  0  0  0  0  0
    2.5098   -0.5199   -2.2412 H   0  0  0  0  0  0  0  0  0  0  0  0
    2.5833    0.2026   -0.6162 H   0  0  0  0  0  0  0  0  0  0  0  0
    3.6395   -2.0407   -0.6413 H   0  0  0  0  0  0  0  0  0  0  0  0
    2.1912   -2.0280    0.3934 H   0  0  0  0  0  0  0  0  0  0  0  0
    2.1177   -2.7506   -1.2316 H   0  0  0  0  0  0  0  0  0  0  0  0
   -2.1475    1.2094   -2.5776 H   0  0  0  0  0  0  0  0  0  0  0  0
   -2.3655    3.2522   -3.9337 H   0  0  0  0  0  0  0  0  0  0  0  0
   -1.8039    5.7112   -6.2081 H   0  0  0  0  0  0  0  0  0  0  0  0
   -2.7458    4.2834   -5.7159 H   0  0  0  0  0  0  0  0  0  0  0  0
   -1.8005    5.1857   -4.5075 H   0  0  0  0  0  0  0  0  0  0  0  0
    1.3775    3.1228   -6.7623 H   0  0  0  0  0  0  0  0  0  0  0  0
    3.1669    1.3306   -5.5122 H   0  0  0  0  0  0  0  0  0  0  0  0
    2.2222    0.4281   -6.7211 H   0  0  0  0  0  0  0  0  0  0  0  0
    4.8154    0.4511   -7.4542 H   0  0  0  0  0  0  0  0  0  0  0  0
    4.8680    1.8928   -9.8822 H   0  0  0  0  0  0  0  0  0  0  0  0
    5.8127    2.7953   -8.6733 H   0  0  0  0  0  0  0  0  0  0  0  0
    7.8524    1.8608   -7.7402 H   0  0  0  0  0  0  0  0  0  0  0  0
    9.7556    0.3384   -8.0908 H   0  0  0  0  0  0  0  0  0  0  0  0
    9.5788   -1.4983   -9.7213 H   0  0  0  0  0  0  0  0  0  0  0  0
    7.4985   -1.8131  -11.0005 H   0  0  0  0  0  0  0  0  0  0  0  0
    5.5936   -0.2935  -10.6464 H   0  0  0  0  0  0  0  0  0  0  0  0
    1.4514    0.2082   -4.6349 H   0  0  0  0  0  0  0  0  0  0  0  0
  1  2  1  0
  1 29  1  6
  1 30  1  0
  1 31  1  0
  2  3  1  0
  2 32  1  1
  2 33  1  0
  3  4  1  0
  6  3  1  1
  4  5  1  0
  4 34  1  6
  4 35  1  0
  5 36  1  1
  5 37  1  0
  5 38  1  0
  6  7  2  0
  6  8  2  0
  6  9  1  0
  9 28  2  0
  9 10  1  0
 10 11  2  0
 10 39  1  0
 11 12  1  0
 11 40  1  0
 12 13  1  0
 12 15  2  0
 13 14  1  0
 14 41  1  6
 14 42  1  0
 14 43  1  0
 15 16  1  0
 15 28  1  0
 16 17  1  0
 16 44  1  0
 17 18  1  0
 17 45  1  1
 17 46  1  0
 18 19  2  0
 18 20  1  0
 20 21  1  0
 20 47  1  0
 21 22  1  0
 21 48  1  6
 21 49  1  0
 22 27  2  0
 22 23  1  0
 23 24  2  0
 23 50  1  0
 24 25  1  0
 24 51  1  0
 25 26  2  0
 25 52  1  0
 26 27  1  0
 26 53  1  0
 27 54  1  0
 28 55  1  0
M  END
$$$$
