ZINC000013831714
     RDKit          3D

 51 54  0  0  0  0  0  0  0  0999 V2000
    0.0021   -0.0041    0.0020 O   0  0  0  0  0  0  0  0  0  0  0  0
   -0.0172    1.4168    0.0098 S   0  0  1  0  0  0  0  0  0  0  0  0
    1.1617    2.2101    0.0028 O   0  0  0  0  0  0  0  0  0  0  0  0
   -0.9567    1.9094   -1.3970 C   0  0  0  0  0  0  0  0  0  0  0  0
   -1.8848    1.0442   -1.9458 C   0  0  0  0  0  0  0  0  0  0  0  0
   -2.6219    1.4307   -3.0496 C   0  0  0  0  0  0  0  0  0  0  0  0
   -2.4313    2.6825   -3.6042 C   0  0  0  0  0  0  0  0  0  0  0  0
   -3.2345    3.1036   -4.8078 C   0  0  1  0  0  0  0  0  0  0  0  0
   -4.4138    3.7273   -4.3864 F   0  0  0  0  0  0  0  0  0  0  0  0
   -2.4843    3.9973   -5.5796 F   0  0  0  0  0  0  0  0  0  0  0  0
   -3.5510    1.9771   -5.5746 F   0  0  0  0  0  0  0  0  0  0  0  0
   -1.5042    3.5481   -3.0546 C   0  0  0  0  0  0  0  0  0  0  0  0
   -0.7699    3.1631   -1.9485 C   0  0  0  0  0  0  0  0  0  0  0  0
   -0.8748    1.8654    1.3536 N   0  0  0  0  0  0  0  0  0  0  0  0
   -0.6796    3.1911    1.9573 C   0  0  1  0  0  0  0  0  0  0  0  0
   -2.0388    3.8966    2.0404 C   0  0  1  0  0  0  0  0  0  0  0  0
   -3.0091    2.9765    2.6503 N   0  0  0  0  0  0  0  0  0  0  0  0
   -3.8674    3.4255    3.9934 S   0  0  1  0  0  0  0  0  0  0  0  0
   -4.2585    2.2224    4.6404 O   0  0  0  0  0  0  0  0  0  0  0  0
   -3.1076    4.4411    4.6341 O   0  0  0  0  0  0  0  0  0  0  0  0
   -5.3506    4.1933    3.4318 C   0  0  0  0  0  0  0  0  0  0  0  0
   -5.3783    5.5561    3.2036 C   0  0  0  0  0  0  0  0  0  0  0  0
   -6.5407    6.1625    2.7651 C   0  0  0  0  0  0  0  0  0  0  0  0
   -7.6822    5.4045    2.5528 C   0  0  0  0  0  0  0  0  0  0  0  0
   -8.8215    6.0167    2.1290 O   0  0  0  0  0  0  0  0  0  0  0  0
   -9.8360    5.1737    1.5720 C   0  0  1  0  0  0  0  0  0  0  0  0
  -10.0127    3.9601    2.4946 C   0  0  1  0  0  0  0  0  0  0  0  0
   -8.7609    3.2697    2.5720 O   0  0  0  0  0  0  0  0  0  0  0  0
   -7.6532    4.0332    2.7788 C   0  0  0  0  0  0  0  0  0  0  0  0
   -6.4830    3.4306    3.2150 C   0  0  0  0  0  0  0  0  0  0  0  0
   -3.2042    1.6508    2.0465 C   0  0  1  0  0  0  0  0  0  0  0  0
   -1.8490    0.9474    1.9601 C   0  0  1  0  0  0  0  0  0  0  0  0
   -2.0336    0.0662   -1.5125 H   0  0  0  0  0  0  0  0  0  0  0  0
   -3.3464    0.7545   -3.4788 H   0  0  0  0  0  0  0  0  0  0  0  0
   -1.3556    4.5263   -3.4877 H   0  0  0  0  0  0  0  0  0  0  0  0
   -0.0456    3.8394   -1.5191 H   0  0  0  0  0  0  0  0  0  0  0  0
   -0.2636    3.0794    2.9586 H   0  0  0  0  0  0  0  0  0  0  0  0
    0.0000    3.7780    1.3395 H   0  0  0  0  0  0  0  0  0  0  0  0
   -1.9489    4.7928    2.6543 H   0  0  0  0  0  0  0  0  0  0  0  0
   -2.3719    4.1682    1.0387 H   0  0  0  0  0  0  0  0  0  0  0  0
   -4.4903    6.1484    3.3683 H   0  0  0  0  0  0  0  0  0  0  0  0
   -6.5598    7.2277    2.5881 H   0  0  0  0  0  0  0  0  0  0  0  0
  -10.7746    5.7237    1.5043 H   0  0  0  0  0  0  0  0  0  0  0  0
   -9.5325    4.8399    0.5798 H   0  0  0  0  0  0  0  0  0  0  0  0
  -10.3103    4.2943    3.4886 H   0  0  0  0  0  0  0  0  0  0  0  0
  -10.7743    3.2958    2.0863 H   0  0  0  0  0  0  0  0  0  0  0  0
   -6.4574    2.3651    3.3894 H   0  0  0  0  0  0  0  0  0  0  0  0
   -3.8838    1.0639    2.6644 H   0  0  0  0  0  0  0  0  0  0  0  0
   -3.6202    1.7625    1.0453 H   0  0  0  0  0  0  0  0  0  0  0  0
   -1.9405    0.0514    1.3461 H   0  0  0  0  0  0  0  0  0  0  0  0
   -1.5136    0.6754    2.9609 H   0  0  0  0  0  0  0  0  0  0  0  0
  1  2  2  0
  2  3  2  0
  2  4  1  0
  2 14  1  1
  4 13  2  0
  4  5  1  0
  5  6  2  0
  5 33  1  0
  6  7  1  0
  6 34  1  0
  7  8  1  0
  7 12  2  0
  8  9  1  1
  8 10  1  0
  8 11  1  0
 12 13  1  0
 12 35  1  0
 13 36  1  0
 14 32  1  0
 14 15  1  0
 15 16  1  0
 15 37  1  1
 15 38  1  0
 16 17  1  0
 16 39  1  1
 16 40  1  0
 18 17  1  6
 17 31  1  0
 18 19  2  0
 18 20  2  0
 18 21  1  0
 21 30  2  0
 21 22  1  0
 22 23  2  0
 22 41  1  0
 23 24  1  0
 23 42  1  0
 24 29  2  0
 24 25  1  0
 25 26  1  0
 26 27  1  0
 26 43  1  6
 26 44  1  0
 27 28  1  0
 27 45  1  1
 27 46  1  0
 28 29  1  0
 29 30  1  0
 30 47  1  0
 31 32  1  0
 31 48  1  1
 31 49  1  0
 32 50  1  6
 32 51  1  0
M  END
$$$$
