ZINC000226070583
     RDKit          3D

 54 55  0  0  0  0  0  0  0  0999 V2000
   -0.0089    1.5333    0.0225 C   0  0  1  0  0  0  0  0  0  0  0  0
    0.0039    0.0034    0.0077 C   0  0  1  0  0  0  0  0  0  0  0  0
    0.7134   -0.4904    1.1905 N   0  0  0  0  0  0  0  0  0  0  0  0
   -0.0006   -0.6486    2.4599 C   0  0  1  0  0  0  0  0  0  0  0  0
   -0.6844   -1.9913    2.4878 C   0  0  0  0  0  0  0  0  0  0  0  0
   -0.5852   -2.7421    1.5404 O   0  0  0  0  0  0  0  0  0  0  0  0
   -1.4062   -2.3577    3.5653 N   0  0  0  0  0  0  0  0  0  0  0  0
   -2.1202   -3.5610    3.5530 C   0  0  0  0  0  0  0  0  0  0  0  0
   -3.3466   -3.6491    4.1984 C   0  0  0  0  0  0  0  0  0  0  0  0
   -4.0489   -4.8383    4.1843 C   0  0  0  0  0  0  0  0  0  0  0  0
   -3.5317   -5.9406    3.5290 C   0  0  0  0  0  0  0  0  0  0  0  0
   -4.3004   -7.2368    3.5161 C   0  0  1  0  0  0  0  0  0  0  0  0
   -5.2138   -7.2673    2.3178 C   0  0  0  0  0  0  0  0  0  0  0  0
   -6.0036   -8.3373    2.0995 N   0  0  0  0  0  0  0  0  0  0  0  0
   -5.2381   -6.3289    1.5499 O   0  0  0  0  0  0  0  0  0  0  0  0
   -2.3109   -5.8561    2.8850 C   0  0  0  0  0  0  0  0  0  0  0  0
   -1.6064   -4.6681    2.8904 C   0  0  0  0  0  0  0  0  0  0  0  0
    2.3223   -0.8699    1.0925 S   0  0  1  0  0  0  0  0  0  0  0  0
    2.5812   -1.7941    2.1404 O   0  0  0  0  0  0  0  0  0  0  0  0
    2.5855   -1.1518   -0.2752 O   0  0  0  0  0  0  0  0  0  0  0  0
    3.2273    0.5908    1.4825 C   0  0  0  0  0  0  0  0  0  0  0  0
    3.5789    1.4735    0.4784 C   0  0  0  0  0  0  0  0  0  0  0  0
    4.2882    2.6197    0.7817 C   0  0  0  0  0  0  0  0  0  0  0  0
    4.6475    2.8845    2.0950 C   0  0  0  0  0  0  0  0  0  0  0  0
    5.3447    4.0115    2.3960 O   0  0  0  0  0  0  0  0  0  0  0  0
    5.6746    4.8797    1.3100 C   0  0  1  0  0  0  0  0  0  0  0  0
    4.2934    1.9969    3.1011 C   0  0  0  0  0  0  0  0  0  0  0  0
    4.6817    2.2817    4.5291 C   0  0  1  0  0  0  0  0  0  0  0  0
    3.5798    0.8550    2.7934 C   0  0  0  0  0  0  0  0  0  0  0  0
    1.0156    1.9054    0.0133 H   0  0  0  0  0  0  0  0  0  0  0  0
   -0.5368    1.9008   -0.8575 H   0  0  0  0  0  0  0  0  0  0  0  0
   -0.5147    1.8837    0.9222 H   0  0  0  0  0  0  0  0  0  0  0  0
   -1.0206   -0.3686    0.0169 H   0  0  0  0  0  0  0  0  0  0  0  0
    0.5097   -0.3470   -0.8920 H   0  0  0  0  0  0  0  0  0  0  0  0
    0.7080   -0.5846    3.2857 H   0  0  0  0  0  0  0  0  0  0  0  0
   -0.7457    0.1407    2.5585 H   0  0  0  0  0  0  0  0  0  0  0  0
   -1.4308   -1.7872    4.3495 H   0  0  0  0  0  0  0  0  0  0  0  0
   -3.7507   -2.7887    4.7110 H   0  0  0  0  0  0  0  0  0  0  0  0
   -5.0027   -4.9074    4.6861 H   0  0  0  0  0  0  0  0  0  0  0  0
   -3.6027   -8.0725    3.4625 H   0  0  0  0  0  0  0  0  0  0  0  0
   -4.8935   -7.3165    4.4271 H   0  0  0  0  0  0  0  0  0  0  0  0
   -5.9841   -9.0878    2.7137 H   0  0  0  0  0  0  0  0  0  0  0  0
   -6.5915   -8.3569    1.3283 H   0  0  0  0  0  0  0  0  0  0  0  0
   -1.9097   -6.7188    2.3740 H   0  0  0  0  0  0  0  0  0  0  0  0
   -0.6530   -4.6027    2.3873 H   0  0  0  0  0  0  0  0  0  0  0  0
    3.2992    1.2667   -0.5441 H   0  0  0  0  0  0  0  0  0  0  0  0
    4.5629    3.3089   -0.0032 H   0  0  0  0  0  0  0  0  0  0  0  0
    6.2293    5.7388    1.6872 H   0  0  0  0  0  0  0  0  0  0  0  0
    6.2869    4.3408    0.5870 H   0  0  0  0  0  0  0  0  0  0  0  0
    4.7590    5.2218    0.8273 H   0  0  0  0  0  0  0  0  0  0  0  0
    3.8932    2.8591    5.0117 H   0  0  0  0  0  0  0  0  0  0  0  0
    4.8215    1.3412    5.0620 H   0  0  0  0  0  0  0  0  0  0  0  0
    5.6112    2.8507    4.5463 H   0  0  0  0  0  0  0  0  0  0  0  0
    3.3036    0.1641    3.5761 H   0  0  0  0  0  0  0  0  0  0  0  0
  1  2  1  0
  1 30  1  1
  1 31  1  0
  1 32  1  0
  2  3  1  0
  2 33  1  6
  2 34  1  0
  3  4  1  0
 18  3  1  6
  4  5  1  0
  4 35  1  1
  4 36  1  0
  5  6  2  0
  5  7  1  0
  7  8  1  0
  7 37  1  0
  8 17  2  0
  8  9  1  0
  9 10  2  0
  9 38  1  0
 10 11  1  0
 10 39  1  0
 11 12  1  0
 11 16  2  0
 12 13  1  0
 12 40  1  6
 12 41  1  0
 13 14  1  0
 13 15  2  0
 14 42  1  0
 14 43  1  0
 16 17  1  0
 16 44  1  0
 17 45  1  0
 18 19  2  0
 18 20  2  0
 18 21  1  0
 21 29  2  0
 21 22  1  0
 22 23  2  0
 22 46  1  0
 23 24  1  0
 23 47  1  0
 24 25  1  0
 24 27  2  0
 25 26  1  0
 26 48  1  1
 26 49  1  0
 26 50  1  0
 27 28  1  0
 27 29  1  0
 28 51  1  1
 28 52  1  0
 28 53  1  0
 29 54  1  0
M  END
$$$$
