ZINC000015364142
     RDKit          3D

 45 47  0  0  0  0  0  0  0  0999 V2000
   -0.0184    1.5028    0.0103 C   0  0  1  0  0  0  0  0  0  0  0  0
    0.0021   -0.0041    0.0020 C   0  0  0  0  0  0  0  0  0  0  0  0
   -1.0773   -0.7877    0.0028 C   0  0  0  0  0  0  0  0  0  0  0  0
   -0.8118   -2.1462   -0.0063 C   0  0  0  0  0  0  0  0  0  0  0  0
    0.4832   -2.4658   -0.0145 C   0  0  0  0  0  0  0  0  0  0  0  0
    1.1244   -4.1069   -0.0280 S   0  0  1  0  0  0  0  0  0  0  0  0
    2.4370   -4.0293    0.5108 O   0  0  0  0  0  0  0  0  0  0  0  0
    0.1090   -4.9389    0.5160 O   0  0  0  0  0  0  0  0  0  0  0  0
    1.2953   -4.5534   -1.6135 N   0  0  0  0  0  0  0  0  0  0  0  0
    0.1921   -5.2099   -2.3288 C   0  0  1  0  0  0  0  0  0  0  0  0
   -0.1201   -4.4028   -3.5950 C   0  0  1  0  0  0  0  0  0  0  0  0
    1.1374   -4.1492   -4.3121 N   0  0  0  0  0  0  0  0  0  0  0  0
    1.3079   -4.5946   -5.8979 S   0  0  1  0  0  0  0  0  0  0  0  0
    2.7029   -4.7397   -6.1262 O   0  0  0  0  0  0  0  0  0  0  0  0
    0.3707   -5.6384   -6.1245 O   0  0  0  0  0  0  0  0  0  0  0  0
    0.7818   -3.2312   -6.8822 C   0  0  0  0  0  0  0  0  0  0  0  0
   -0.5428   -3.1238   -7.2627 C   0  0  0  0  0  0  0  0  0  0  0  0
   -0.9556   -2.0541   -8.0349 C   0  0  0  0  0  0  0  0  0  0  0  0
   -0.0438   -1.0916   -8.4262 C   0  0  0  0  0  0  0  0  0  0  0  0
   -0.4937    0.0743   -9.2684 C   0  0  1  0  0  0  0  0  0  0  0  0
   -0.8922    1.1252   -8.4353 F   0  0  0  0  0  0  0  0  0  0  0  0
    0.5635    0.4983  -10.0807 F   0  0  0  0  0  0  0  0  0  0  0  0
   -1.5702   -0.3182  -10.0712 F   0  0  0  0  0  0  0  0  0  0  0  0
    1.2805   -1.1982   -8.0445 C   0  0  0  0  0  0  0  0  0  0  0  0
    1.6925   -2.2658   -7.2691 C   0  0  0  0  0  0  0  0  0  0  0  0
    2.2406   -3.4926   -3.5968 C   0  0  1  0  0  0  0  0  0  0  0  0
    2.5509   -4.2947   -2.3322 C   0  0  1  0  0  0  0  0  0  0  0  0
    1.4528   -0.9983   -0.0178 S   0  0  0  0  0  0  0  0  0  0  0  0
    1.0042    1.8801    0.0026 H   0  0  0  0  0  0  0  0  0  0  0  0
   -0.5455    1.8639   -0.8728 H   0  0  0  0  0  0  0  0  0  0  0  0
   -0.5286    1.8543    0.9071 H   0  0  0  0  0  0  0  0  0  0  0  0
   -2.0823   -0.3923    0.0103 H   0  0  0  0  0  0  0  0  0  0  0  0
   -1.5939   -2.8910   -0.0065 H   0  0  0  0  0  0  0  0  0  0  0  0
    0.4859   -6.2229   -2.6038 H   0  0  0  0  0  0  0  0  0  0  0  0
   -0.6900   -5.2431   -1.6893 H   0  0  0  0  0  0  0  0  0  0  0  0
   -0.7970   -4.9708   -4.2332 H   0  0  0  0  0  0  0  0  0  0  0  0
   -0.5820   -3.4547   -3.3198 H   0  0  0  0  0  0  0  0  0  0  0  0
   -1.2551   -3.8759   -6.9571 H   0  0  0  0  0  0  0  0  0  0  0  0
   -1.9903   -1.9706   -8.3328 H   0  0  0  0  0  0  0  0  0  0  0  0
    1.9927   -0.4459   -8.3498 H   0  0  0  0  0  0  0  0  0  0  0  0
    2.7271   -2.3492   -6.9709 H   0  0  0  0  0  0  0  0  0  0  0  0
    3.1228   -3.4594   -4.2362 H   0  0  0  0  0  0  0  0  0  0  0  0
    1.9468   -2.4796   -3.3218 H   0  0  0  0  0  0  0  0  0  0  0  0
    3.2278   -3.7256   -1.6950 H   0  0  0  0  0  0  0  0  0  0  0  0
    3.0123   -5.2437   -2.6050 H   0  0  0  0  0  0  0  0  0  0  0  0
  1  2  1  0
  1 29  1  6
  1 30  1  0
  1 31  1  0
  2 28  1  0
  2  3  2  0
  3  4  1  0
  3 32  1  0
  4  5  2  0
  4 33  1  0
  5  6  1  0
  5 28  1  0
  6  7  2  0
  6  8  2  0
  6  9  1  6
  9 27  1  0
  9 10  1  0
 10 11  1  0
 10 34  1  6
 10 35  1  0
 11 12  1  0
 11 36  1  6
 11 37  1  0
 13 12  1  1
 12 26  1  0
 13 14  2  0
 13 15  2  0
 13 16  1  0
 16 25  2  0
 16 17  1  0
 17 18  2  0
 17 38  1  0
 18 19  1  0
 18 39  1  0
 19 20  1  0
 19 24  2  0
 20 21  1  1
 20 22  1  0
 20 23  1  0
 24 25  1  0
 24 40  1  0
 25 41  1  0
 26 27  1  0
 26 42  1  6
 26 43  1  0
 27 44  1  1
 27 45  1  0
M  END
$$$$
