ZINC000003004194
     RDKit          3D

 53 54  0  0  0  0  0  0  0  0999 V2000
   -0.0173    1.4248    0.0099 C   0  0  1  0  0  0  0  0  0  0  0  0
    0.0021   -0.0041    0.0020 O   0  0  0  0  0  0  0  0  0  0  0  0
    0.6734   -0.5824    1.1231 C   0  0  1  0  0  0  0  0  0  0  0  0
    0.6327   -2.1077    1.0107 C   0  0  1  0  0  0  0  0  0  0  0  0
    1.4013   -2.5316   -0.1622 N   0  0  0  0  0  0  0  0  0  0  0  0
    1.5054   -3.8414   -0.4623 C   0  0  0  0  0  0  0  0  0  0  0  0
    0.9628   -4.6691    0.2386 O   0  0  0  0  0  0  0  0  0  0  0  0
    2.2961   -4.2775   -1.6689 C   0  0  1  0  0  0  0  0  0  0  0  0
    2.2571   -5.7380   -1.7765 N   0  0  0  0  0  0  0  0  0  0  0  0
    1.1335   -6.3930   -2.4509 C   0  0  1  0  0  0  0  0  0  0  0  0
    1.3935   -6.4350   -3.9347 C   0  0  0  0  0  0  0  0  0  0  0  0
    0.9750   -5.3919   -4.7395 C   0  0  0  0  0  0  0  0  0  0  0  0
    1.2134   -5.4303   -6.1005 C   0  0  0  0  0  0  0  0  0  0  0  0
    1.8708   -6.5117   -6.6568 C   0  0  0  0  0  0  0  0  0  0  0  0
    2.1304   -6.5538   -8.1407 C   0  0  1  0  0  0  0  0  0  0  0  0
    2.2906   -7.5541   -5.8518 C   0  0  0  0  0  0  0  0  0  0  0  0
    2.0555   -7.5139   -4.4902 C   0  0  0  0  0  0  0  0  0  0  0  0
    3.4831   -6.6485   -1.1360 S   0  0  1  0  0  0  0  0  0  0  0  0
    3.5746   -7.8186   -1.9370 O   0  0  0  0  0  0  0  0  0  0  0  0
    4.5741   -5.7623   -0.9272 O   0  0  0  0  0  0  0  0  0  0  0  0
    2.9598   -7.1783    0.4609 C   0  0  0  0  0  0  0  0  0  0  0  0
    3.2283   -6.3985    1.5702 C   0  0  0  0  0  0  0  0  0  0  0  0
    2.8178   -6.8141    2.8231 C   0  0  0  0  0  0  0  0  0  0  0  0
    2.1384   -8.0094    2.9665 C   0  0  0  0  0  0  0  0  0  0  0  0
    1.6912   -8.4628    4.3324 C   0  0  1  0  0  0  0  0  0  0  0  0
    1.8686   -8.7885    1.8570 C   0  0  0  0  0  0  0  0  0  0  0  0
    2.2758   -8.3710    0.6037 C   0  0  0  0  0  0  0  0  0  0  0  0
    1.0053    1.8021    0.0021 H   0  0  0  0  0  0  0  0  0  0  0  0
   -0.5445    1.7859   -0.8732 H   0  0  0  0  0  0  0  0  0  0  0  0
   -0.5275    1.7763    0.9067 H   0  0  0  0  0  0  0  0  0  0  0  0
    1.7103   -0.2468    1.1385 H   0  0  0  0  0  0  0  0  0  0  0  0
    0.1775   -0.2725    2.0430 H   0  0  0  0  0  0  0  0  0  0  0  0
    1.0656   -2.5499    1.9080 H   0  0  0  0  0  0  0  0  0  0  0  0
   -0.4012   -2.4369    0.9060 H   0  0  0  0  0  0  0  0  0  0  0  0
    1.8353   -1.8696   -0.7228 H   0  0  0  0  0  0  0  0  0  0  0  0
    1.8631   -3.8353   -2.5662 H   0  0  0  0  0  0  0  0  0  0  0  0
    3.3299   -3.9483   -1.5642 H   0  0  0  0  0  0  0  0  0  0  0  0
    1.0250   -7.4094   -2.0721 H   0  0  0  0  0  0  0  0  0  0  0  0
    0.2180   -5.8338   -2.2581 H   0  0  0  0  0  0  0  0  0  0  0  0
    0.4613   -4.5470   -4.3049 H   0  0  0  0  0  0  0  0  0  0  0  0
    0.8858   -4.6157   -6.7294 H   0  0  0  0  0  0  0  0  0  0  0  0
    3.0936   -6.0906   -8.3543 H   0  0  0  0  0  0  0  0  0  0  0  0
    2.1428   -7.5902   -8.4780 H   0  0  0  0  0  0  0  0  0  0  0  0
    1.3424   -6.0112   -8.6629 H   0  0  0  0  0  0  0  0  0  0  0  0
    2.8045   -8.3988   -6.2863 H   0  0  0  0  0  0  0  0  0  0  0  0
    2.3834   -8.3283   -3.8613 H   0  0  0  0  0  0  0  0  0  0  0  0
    3.7592   -5.4646    1.4582 H   0  0  0  0  0  0  0  0  0  0  0  0
    3.0282   -6.2052    3.6899 H   0  0  0  0  0  0  0  0  0  0  0  0
    0.6905   -8.0799    4.5327 H   0  0  0  0  0  0  0  0  0  0  0  0
    1.6772   -9.5521    4.3671 H   0  0  0  0  0  0  0  0  0  0  0  0
    2.3826   -8.0841    5.0852 H   0  0  0  0  0  0  0  0  0  0  0  0
    1.3375   -9.7222    1.9690 H   0  0  0  0  0  0  0  0  0  0  0  0
    2.0651   -8.9798   -0.2632 H   0  0  0  0  0  0  0  0  0  0  0  0
  1  2  1  0
  1 28  1  6
  1 29  1  0
  1 30  1  0
  2  3  1  0
  3  4  1  0
  3 31  1  1
  3 32  1  0
  4  5  1  0
  4 33  1  1
  4 34  1  0
  5  6  1  0
  5 35  1  0
  6  7  2  0
  6  8  1  0
  8  9  1  0
  8 36  1  6
  8 37  1  0
  9 10  1  0
 18  9  1  6
 10 11  1  0
 10 38  1  1
 10 39  1  0
 11 17  2  0
 11 12  1  0
 12 13  2  0
 12 40  1  0
 13 14  1  0
 13 41  1  0
 14 15  1  0
 14 16  2  0
 15 42  1  1
 15 43  1  0
 15 44  1  0
 16 17  1  0
 16 45  1  0
 17 46  1  0
 18 19  2  0
 18 20  2  0
 18 21  1  0
 21 27  2  0
 21 22  1  0
 22 23  2  0
 22 47  1  0
 23 24  1  0
 23 48  1  0
 24 25  1  0
 24 26  2  0
 25 49  1  1
 25 50  1  0
 25 51  1  0
 26 27  1  0
 26 52  1  0
 27 53  1  0
M  END
$$$$
