ZINC000039986009
     RDKit          3D

 43 43  0  0  1  0  0  0  0  0999 V2000
   -0.0187    1.5258    0.0104 C   0  0  1  0  0  0  0  0  0  0  0  0
    0.0021   -0.0041    0.0020 C   0  0  1  0  0  0  0  0  0  0  0  0
    0.7106   -0.4894    1.1889 N   0  0  0  0  0  0  0  0  0  0  0  0
   -0.0062   -0.6460    2.4569 C   0  0  1  0  0  0  0  0  0  0  0  0
   -0.6831   -1.9920    2.4883 C   0  0  0  0  0  0  0  0  0  0  0  0
   -0.5773   -2.7462    1.5445 O   0  0  0  0  0  0  0  0  0  0  0  0
   -1.4062   -2.3577    3.5653 N   0  0  0  0  0  0  0  0  0  0  0  0
   -2.0643   -3.6662    3.5959 C   0  0  1  0  0  0  0  0  0  0  0  0
   -2.4063   -3.9244    2.5937 H   0  0  0  0  0  0  0  0  0  0  0  0
   -1.0732   -4.7242    4.0849 C   0  0  1  0  0  0  0  0  0  0  0  0
   -3.2627   -3.6123    4.5456 C   0  0  1  0  0  0  0  0  0  0  0  0
   -2.8032   -3.3890    5.8801 O   0  0  0  0  0  0  0  0  0  0  0  0
   -3.8492   -3.3215    6.8514 C   0  0  1  0  0  0  0  0  0  0  0  0
    2.3218   -0.8609    1.0971 S   0  0  1  0  0  0  0  0  0  0  0  0
    2.5823   -1.7795    2.1496 O   0  0  0  0  0  0  0  0  0  0  0  0
    2.5905   -1.1471   -0.2686 O   0  0  0  0  0  0  0  0  0  0  0  0
    3.2182    0.6060    1.4837 C   0  0  0  0  0  0  0  0  0  0  0  0
    3.5687    1.4871    0.4779 C   0  0  0  0  0  0  0  0  0  0  0  0
    4.2720    2.6379    0.7812 C   0  0  0  0  0  0  0  0  0  0  0  0
    4.6242    2.9079    2.0903 C   0  0  0  0  0  0  0  0  0  0  0  0
    4.2728    2.0272    3.0963 C   0  0  0  0  0  0  0  0  0  0  0  0
    3.5659    0.8785    2.7936 C   0  0  0  0  0  0  0  0  0  0  0  0
    1.0039    1.9031    0.0027 H   0  0  0  0  0  0  0  0  0  0  0  0
   -0.5459    1.8868   -0.8726 H   0  0  0  0  0  0  0  0  0  0  0  0
   -0.5289    1.8773    0.9072 H   0  0  0  0  0  0  0  0  0  0  0  0
   -1.0205   -0.3814    0.0098 H   0  0  0  0  0  0  0  0  0  0  0  0
    0.5123   -0.3556   -0.8948 H   0  0  0  0  0  0  0  0  0  0  0  0
    0.6997   -0.5749    3.2845 H   0  0  0  0  0  0  0  0  0  0  0  0
   -0.7557    0.1399    2.5501 H   0  0  0  0  0  0  0  0  0  0  0  0
   -1.4909   -1.7545    4.3202 H   0  0  0  0  0  0  0  0  0  0  0  0
   -1.5629   -5.6978    4.1076 H   0  0  0  0  0  0  0  0  0  0  0  0
   -0.2195   -4.7626    3.4083 H   0  0  0  0  0  0  0  0  0  0  0  0
   -0.7312   -4.4661    5.0872 H   0  0  0  0  0  0  0  0  0  0  0  0
   -3.9253   -2.7994    4.2487 H   0  0  0  0  0  0  0  0  0  0  0  0
   -3.8043   -4.5572    4.5011 H   0  0  0  0  0  0  0  0  0  0  0  0
   -3.4185   -3.1502    7.8379 H   0  0  0  0  0  0  0  0  0  0  0  0
   -4.5240   -2.5025    6.6023 H   0  0  0  0  0  0  0  0  0  0  0  0
   -4.4030   -4.2604    6.8548 H   0  0  0  0  0  0  0  0  0  0  0  0
    3.2935    1.2761   -0.5449 H   0  0  0  0  0  0  0  0  0  0  0  0
    4.5465    3.3259   -0.0048 H   0  0  0  0  0  0  0  0  0  0  0  0
    5.1742    3.8066    2.3272 H   0  0  0  0  0  0  0  0  0  0  0  0
    4.5483    2.2380    4.1191 H   0  0  0  0  0  0  0  0  0  0  0  0
    3.2914    0.1905    3.5795 H   0  0  0  0  0  0  0  0  0  0  0  0
  1  2  1  0
  1 23  1  6
  1 24  1  0
  1 25  1  0
  2  3  1  0
  2 26  1  1
  2 27  1  0
  3  4  1  0
 14  3  1  6
  4  5  1  0
  4 28  1  1
  4 29  1  0
  5  6  2  0
  5  7  1  0
  7  8  1  0
  7 30  1  0
  8  9  1  6
  8 10  1  0
  8 11  1  0
 10 31  1  1
 10 32  1  0
 10 33  1  0
 11 12  1  0
 11 34  1  6
 11 35  1  0
 12 13  1  0
 13 36  1  1
 13 37  1  0
 13 38  1  0
 14 15  2  0
 14 16  2  0
 14 17  1  0
 17 22  2  0
 17 18  1  0
 18 19  2  0
 18 39  1  0
 19 20  1  0
 19 40  1  0
 20 21  2  0
 20 41  1  0
 21 22  1  0
 21 42  1  0
 22 43  1  0
M  END
$$$$
