ZINC000080819428
     RDKit          3D

 39 40  0  0  1  0  0  0  0  0999 V2000
   -0.2196    0.8470   -1.5892 C   0  0  1  0  0  0  0  0  0  0  0  0
   -0.3011   -0.6746   -1.4517 C   0  0  1  0  0  0  0  0  0  0  0  0
   -1.6412   -1.0528   -1.1305 O   0  0  0  0  0  0  0  0  0  0  0  0
   -1.8272   -2.4615   -0.9792 C   0  0  2  0  0  0  0  0  0  0  0  0
   -0.9036   -2.9131   -0.6170 H   0  0  0  0  0  0  0  0  0  0  0  0
   -2.1991   -3.0749   -2.3306 C   0  0  1  0  0  0  0  0  0  0  0  0
   -2.9339   -2.7186    0.0108 C   0  0  0  0  0  0  0  0  0  0  0  0
   -2.8837   -3.5843    0.9663 N   0  0  0  0  0  0  0  0  0  0  0  0
   -3.9424   -3.6816    1.7450 C   0  0  0  0  0  0  0  0  0  0  0  0
   -4.0202   -4.6489    2.8979 C   0  0  1  0  0  0  0  0  0  0  0  0
   -4.4626   -5.9571    2.4088 N   0  0  0  0  0  0  0  0  0  0  0  0
   -3.4761   -6.9452    1.9654 C   0  0  1  0  0  0  0  0  0  0  0  0
   -5.7771   -6.2515    2.3667 C   0  0  0  0  0  0  0  0  0  0  0  0
   -6.5996   -5.3995    2.6394 O   0  0  0  0  0  0  0  0  0  0  0  0
   -6.2194   -7.6137    1.9879 C   0  0  0  0  0  0  0  0  0  0  0  0
   -7.5754   -7.8847    1.8116 C   0  0  0  0  0  0  0  0  0  0  0  0
   -7.9650   -9.1010    1.4739 N   0  0  0  0  0  0  0  0  0  0  0  0
   -7.0713  -10.0589    1.3036 C   0  0  0  0  0  0  0  0  0  0  0  0
   -5.7207   -9.7926    1.4788 C   0  0  0  0  0  0  0  0  0  0  0  0
   -5.3232   -8.5806    1.8098 N   0  0  0  0  0  0  0  0  0  0  0  0
   -4.9411   -2.8518    1.4289 C   0  0  0  0  0  0  0  0  0  0  0  0
   -4.4349   -1.9002    0.0350 S   0  0  0  0  0  0  0  0  0  0  0  0
    0.8026    1.1355   -1.8341 H   0  0  0  0  0  0  0  0  0  0  0  0
   -0.8902    1.1766   -2.3828 H   0  0  0  0  0  0  0  0  0  0  0  0
   -0.5132    1.3131   -0.6486 H   0  0  0  0  0  0  0  0  0  0  0  0
   -0.0075   -1.1406   -2.3922 H   0  0  0  0  0  0  0  0  0  0  0  0
    0.3695   -1.0041   -0.6580 H   0  0  0  0  0  0  0  0  0  0  0  0
   -1.3986   -2.8890   -3.0466 H   0  0  0  0  0  0  0  0  0  0  0  0
   -2.3409   -4.1495   -2.2151 H   0  0  0  0  0  0  0  0  0  0  0  0
   -3.1226   -2.6234   -2.6928 H   0  0  0  0  0  0  0  0  0  0  0  0
   -3.0365   -4.7465    3.3574 H   0  0  0  0  0  0  0  0  0  0  0  0
   -4.7309   -4.2778    3.6363 H   0  0  0  0  0  0  0  0  0  0  0  0
   -3.2487   -7.6253    2.7863 H   0  0  0  0  0  0  0  0  0  0  0  0
   -3.8805   -7.5111    1.1262 H   0  0  0  0  0  0  0  0  0  0  0  0
   -2.5649   -6.4345    1.6538 H   0  0  0  0  0  0  0  0  0  0  0  0
   -8.3061   -7.1018    1.9512 H   0  0  0  0  0  0  0  0  0  0  0  0
   -7.3928  -11.0523    1.0275 H   0  0  0  0  0  0  0  0  0  0  0  0
   -4.9937  -10.5788    1.3388 H   0  0  0  0  0  0  0  0  0  0  0  0
   -5.8895   -2.7753    1.9399 H   0  0  0  0  0  0  0  0  0  0  0  0
  1  2  1  0
  1 23  1  6
  1 24  1  0
  1 25  1  0
  2  3  1  0
  2 26  1  6
  2 27  1  0
  3  4  1  0
  4  5  1  1
  4  6  1  0
  4  7  1  0
  6 28  1  6
  6 29  1  0
  6 30  1  0
  7 22  1  0
  7  8  2  0
  8  9  1  0
  9 10  1  0
  9 21  2  0
 10 11  1  0
 10 31  1  1
 10 32  1  0
 11 12  1  0
 11 13  1  0
 12 33  1  1
 12 34  1  0
 12 35  1  0
 13 14  2  0
 13 15  1  0
 15 20  2  0
 15 16  1  0
 16 17  2  0
 16 36  1  0
 17 18  1  0
 18 19  2  0
 18 37  1  0
 19 20  1  0
 19 38  1  0
 21 22  1  0
 21 39  1  0
M  END
$$$$
