ZINC000408621450
     RDKit          3D

 50 51  0  0  1  0  0  0  0  0999 V2000
   -0.0173    1.4248    0.0099 C   0  0  1  0  0  0  0  0  0  0  0  0
    0.0021   -0.0041    0.0020 O   0  0  0  0  0  0  0  0  0  0  0  0
    0.6518   -0.5703   -1.1379 C   0  0  1  0  0  0  0  0  0  0  0  0
    0.6131   -2.0967   -1.0411 C   0  0  2  0  0  0  0  0  0  0  0  0
    1.0288   -2.5292   -1.9512 H   0  0  0  0  0  0  0  0  0  0  0  0
   -0.8350   -2.5604   -0.8713 C   0  0  1  0  0  0  0  0  0  0  0  0
    1.4039   -2.5331    0.1124 N   0  0  0  0  0  0  0  0  0  0  0  0
    1.9385   -3.7701    0.1337 C   0  0  0  0  0  0  0  0  0  0  0  0
    1.7649   -4.5220   -0.8019 O   0  0  0  0  0  0  0  0  0  0  0  0
    2.7520   -4.2190    1.3202 C   0  0  1  0  0  0  0  0  0  0  0  0
    3.2178   -5.5908    1.1021 N   0  0  0  0  0  0  0  0  0  0  0  0
    4.4475   -5.8351    0.3443 C   0  0  1  0  0  0  0  0  0  0  0  0
    5.6348   -5.7323    1.2666 C   0  0  0  0  0  0  0  0  0  0  0  0
    6.2605   -4.5139    1.4543 C   0  0  0  0  0  0  0  0  0  0  0  0
    7.3495   -4.4190    2.3002 C   0  0  0  0  0  0  0  0  0  0  0  0
    7.8134   -5.5437    2.9590 C   0  0  0  0  0  0  0  0  0  0  0  0
    9.1807   -5.4252    4.0220 Cl  0  0  0  0  0  0  0  0  0  0  0  0
    7.1868   -6.7627    2.7708 C   0  0  0  0  0  0  0  0  0  0  0  0
    6.0944   -6.8552    1.9291 C   0  0  0  0  0  0  0  0  0  0  0  0
    2.3542   -6.8653    1.7123 S   0  0  1  0  0  0  0  0  0  0  0  0
    3.2955   -7.8948    1.9829 O   0  0  0  0  0  0  0  0  0  0  0  0
    1.4868   -6.3259    2.7001 O   0  0  0  0  0  0  0  0  0  0  0  0
    1.3213   -7.4636    0.4162 C   0  0  0  0  0  0  0  0  0  0  0  0
    0.0519   -6.9426    0.2481 C   0  0  0  0  0  0  0  0  0  0  0  0
   -0.7588   -7.4115   -0.7684 C   0  0  0  0  0  0  0  0  0  0  0  0
   -0.2996   -8.4025   -1.6177 C   0  0  0  0  0  0  0  0  0  0  0  0
   -1.3171   -8.9915   -2.8950 Cl  0  0  0  0  0  0  0  0  0  0  0  0
    0.9709   -8.9235   -1.4489 C   0  0  0  0  0  0  0  0  0  0  0  0
    1.7827   -8.4498   -0.4356 C   0  0  0  0  0  0  0  0  0  0  0  0
    1.0053    1.8021    0.0021 H   0  0  0  0  0  0  0  0  0  0  0  0
   -0.5445    1.7859   -0.8732 H   0  0  0  0  0  0  0  0  0  0  0  0
   -0.5275    1.7763    0.9067 H   0  0  0  0  0  0  0  0  0  0  0  0
    0.1385   -0.2506   -2.0447 H   0  0  0  0  0  0  0  0  0  0  0  0
    1.6883   -0.2344   -1.1694 H   0  0  0  0  0  0  0  0  0  0  0  0
   -0.8626   -3.6479   -0.8024 H   0  0  0  0  0  0  0  0  0  0  0  0
   -1.2507   -2.1280    0.0388 H   0  0  0  0  0  0  0  0  0  0  0  0
   -1.4235   -2.2357   -1.7295 H   0  0  0  0  0  0  0  0  0  0  0  0
    1.5428   -1.9317    0.8607 H   0  0  0  0  0  0  0  0  0  0  0  0
    3.6107   -3.5589    1.4427 H   0  0  0  0  0  0  0  0  0  0  0  0
    2.1352   -4.1832    2.2182 H   0  0  0  0  0  0  0  0  0  0  0  0
    4.4126   -6.8328   -0.0932 H   0  0  0  0  0  0  0  0  0  0  0  0
    4.5386   -5.0934   -0.4493 H   0  0  0  0  0  0  0  0  0  0  0  0
    5.8985   -3.6361    0.9397 H   0  0  0  0  0  0  0  0  0  0  0  0
    7.8384   -3.4672    2.4465 H   0  0  0  0  0  0  0  0  0  0  0  0
    7.5486   -7.6410    3.2846 H   0  0  0  0  0  0  0  0  0  0  0  0
    5.6050   -7.8067    1.7823 H   0  0  0  0  0  0  0  0  0  0  0  0
   -0.3065   -6.1693    0.9113 H   0  0  0  0  0  0  0  0  0  0  0  0
   -1.7506   -7.0047   -0.8994 H   0  0  0  0  0  0  0  0  0  0  0  0
    1.3297   -9.6973   -2.1114 H   0  0  0  0  0  0  0  0  0  0  0  0
    2.7747   -8.8561   -0.3040 H   0  0  0  0  0  0  0  0  0  0  0  0
  1  2  1  0
  1 30  1  6
  1 31  1  0
  1 32  1  0
  2  3  1  0
  3  4  1  0
  3 33  1  6
  3 34  1  0
  4  5  1  6
  4  6  1  0
  4  7  1  0
  6 35  1  1
  6 36  1  0
  6 37  1  0
  7  8  1  0
  7 38  1  0
  8  9  2  0
  8 10  1  0
 10 11  1  0
 10 39  1  1
 10 40  1  0
 11 12  1  0
 20 11  1  6
 12 13  1  0
 12 41  1  6
 12 42  1  0
 13 19  2  0
 13 14  1  0
 14 15  2  0
 14 43  1  0
 15 16  1  0
 15 44  1  0
 16 17  1  0
 16 18  2  0
 18 19  1  0
 18 45  1  0
 19 46  1  0
 20 21  2  0
 20 22  2  0
 20 23  1  0
 23 29  2  0
 23 24  1  0
 24 25  2  0
 24 47  1  0
 25 26  1  0
 25 48  1  0
 26 27  1  0
 26 28  2  0
 28 29  1  0
 28 49  1  0
 29 50  1  0
M  END
$$$$
