ZINC000409142269
     RDKit          3D

 47 48  0  0  1  0  0  0  0  0999 V2000
    0.2001    0.2938    0.8175 C   0  0  1  0  0  0  0  0  0  0  0  0
   -0.3822    0.0990   -0.4729 O   0  0  0  0  0  0  0  0  0  0  0  0
    0.3874   -0.5146   -1.4114 C   0  0  0  0  0  0  0  0  0  0  0  0
    1.6735   -0.9249   -1.0928 C   0  0  0  0  0  0  0  0  0  0  0  0
    2.4555   -1.5485   -2.0451 C   0  0  0  0  0  0  0  0  0  0  0  0
    1.9540   -1.7647   -3.3218 C   0  0  0  0  0  0  0  0  0  0  0  0
    2.7455   -2.3969   -4.2872 N   0  0  0  0  0  0  0  0  0  0  0  0
    3.0865   -3.8142   -4.1413 C   0  0  1  0  0  0  0  0  0  0  0  0
    3.7236   -4.1218   -4.9705 H   0  0  0  0  0  0  0  0  0  0  0  0
    3.8300   -4.0265   -2.8210 C   0  0  1  0  0  0  0  0  0  0  0  0
    1.8244   -4.6375   -4.1451 C   0  0  0  0  0  0  0  0  0  0  0  0
    0.7428   -4.0896   -4.1101 O   0  0  0  0  0  0  0  0  0  0  0  0
    1.8973   -5.9826   -4.1873 N   0  0  0  0  0  0  0  0  0  0  0  0
    0.7263   -6.7448   -4.2719 C   0  0  0  0  0  0  0  0  0  0  0  0
   -0.4665   -6.2457   -3.7668 C   0  0  0  0  0  0  0  0  0  0  0  0
   -1.6208   -7.0001   -3.8522 C   0  0  0  0  0  0  0  0  0  0  0  0
   -2.9160   -6.4583   -3.3045 C   0  0  1  0  0  0  0  0  0  0  0  0
   -3.5851   -5.7475   -4.3066 F   0  0  0  0  0  0  0  0  0  0  0  0
   -3.7184   -7.5188   -2.8699 F   0  0  0  0  0  0  0  0  0  0  0  0
   -2.6469   -5.6058   -2.2284 F   0  0  0  0  0  0  0  0  0  0  0  0
   -1.5895   -8.2511   -4.4399 C   0  0  0  0  0  0  0  0  0  0  0  0
   -0.4030   -8.7522   -4.9440 C   0  0  0  0  0  0  0  0  0  0  0  0
    0.7540   -8.0006   -4.8670 C   0  0  0  0  0  0  0  0  0  0  0  0
    2.2429   -8.6296   -5.5003 Cl  0  0  0  0  0  0  0  0  0  0  0  0
    3.2968   -1.5430   -5.5946 S   0  0  1  0  0  0  0  0  0  0  0  0
    4.8925   -0.8696   -5.0553 C   0  0  1  0  0  0  0  0  0  0  0  0
    3.4858   -2.5274   -6.6018 O   0  0  0  0  0  0  0  0  0  0  0  0
    2.3454   -0.5003   -5.7587 O   0  0  0  0  0  0  0  0  0  0  0  0
    0.6663   -1.3536   -3.6398 C   0  0  0  0  0  0  0  0  0  0  0  0
   -0.1163   -0.7349   -2.6848 C   0  0  0  0  0  0  0  0  0  0  0  0
    0.4682   -0.6725    1.2447 H   0  0  0  0  0  0  0  0  0  0  0  0
    1.0942    0.9101    0.7233 H   0  0  0  0  0  0  0  0  0  0  0  0
   -0.5179    0.7923    1.4687 H   0  0  0  0  0  0  0  0  0  0  0  0
    2.0635   -0.7563   -0.0999 H   0  0  0  0  0  0  0  0  0  0  0  0
    3.4570   -1.8676   -1.7971 H   0  0  0  0  0  0  0  0  0  0  0  0
    4.6636   -3.3271   -2.7569 H   0  0  0  0  0  0  0  0  0  0  0  0
    3.1477   -3.8559   -1.9883 H   0  0  0  0  0  0  0  0  0  0  0  0
    4.2084   -5.0478   -2.7773 H   0  0  0  0  0  0  0  0  0  0  0  0
    2.7614   -6.4226   -4.1590 H   0  0  0  0  0  0  0  0  0  0  0  0
   -0.4921   -5.2687   -3.3072 H   0  0  0  0  0  0  0  0  0  0  0  0
   -2.4934   -8.8385   -4.5053 H   0  0  0  0  0  0  0  0  0  0  0  0
   -0.3818   -9.7300   -5.4022 H   0  0  0  0  0  0  0  0  0  0  0  0
    5.6081   -1.6829   -4.9351 H   0  0  0  0  0  0  0  0  0  0  0  0
    5.2622   -0.1679   -5.8030 H   0  0  0  0  0  0  0  0  0  0  0  0
    4.7660   -0.3533   -4.1037 H   0  0  0  0  0  0  0  0  0  0  0  0
    0.2754   -1.5213   -4.6326 H   0  0  0  0  0  0  0  0  0  0  0  0
   -1.1179   -0.4154   -2.9318 H   0  0  0  0  0  0  0  0  0  0  0  0
  1  2  1  0
  1 31  1  1
  1 32  1  0
  1 33  1  0
  2  3  1  0
  3 30  2  0
  3  4  1  0
  4  5  2  0
  4 34  1  0
  5  6  1  0
  5 35  1  0
  6  7  1  0
  6 29  2  0
  7  8  1  0
 25  7  1  1
  8  9  1  6
  8 10  1  0
  8 11  1  0
 10 36  1  1
 10 37  1  0
 10 38  1  0
 11 12  2  0
 11 13  1  0
 13 14  1  0
 13 39  1  0
 14 23  2  0
 14 15  1  0
 15 16  2  0
 15 40  1  0
 16 17  1  0
 16 21  1  0
 17 18  1  6
 17 19  1  0
 17 20  1  0
 21 22  2  0
 21 41  1  0
 22 23  1  0
 22 42  1  0
 23 24  1  0
 25 26  1  0
 25 27  2  0
 25 28  2  0
 26 43  1  1
 26 44  1  0
 26 45  1  0
 29 30  1  0
 29 46  1  0
 30 47  1  0
M  END
$$$$
