ZINC000012897452
     RDKit          3D

 47 48  0  0  0  0  0  0  0  0999 V2000
   -0.0187    1.5258    0.0104 C   0  0  1  0  0  0  0  0  0  0  0  0
    0.0021   -0.0041    0.0020 C   0  0  1  0  0  0  0  0  0  0  0  0
    0.7106   -0.4894    1.1889 N   0  0  0  0  0  0  0  0  0  0  0  0
   -0.0062   -0.6460    2.4569 C   0  0  1  0  0  0  0  0  0  0  0  0
   -0.6935   -2.0126    2.4888 C   0  0  1  0  0  0  0  0  0  0  0  0
    2.3218   -0.8609    1.0971 S   0  0  1  0  0  0  0  0  0  0  0  0
    2.5823   -1.7795    2.1496 O   0  0  0  0  0  0  0  0  0  0  0  0
    2.5905   -1.1471   -0.2686 O   0  0  0  0  0  0  0  0  0  0  0  0
    3.2182    0.6060    1.4837 C   0  0  0  0  0  0  0  0  0  0  0  0
    3.5675    1.4857    0.4746 C   0  0  0  0  0  0  0  0  0  0  0  0
    4.2697    2.6358    0.7704 C   0  0  0  0  0  0  0  0  0  0  0  0
    4.6273    2.9112    2.0912 C   0  0  0  0  0  0  0  0  0  0  0  0
    5.3794    4.1420    2.4156 C   0  0  0  0  0  0  0  0  0  0  0  0
    5.6877    4.9167    1.5311 O   0  0  0  0  0  0  0  0  0  0  0  0
    5.7232    4.4050    3.6919 N   0  0  0  0  0  0  0  0  0  0  0  0
    6.4685    5.6246    4.0133 C   0  0  1  0  0  0  0  0  0  0  0  0
    6.7252    5.6801    5.4973 C   0  0  0  0  0  0  0  0  0  0  0  0
    6.3251    4.7886    6.2156 O   0  0  0  0  0  0  0  0  0  0  0  0
    7.3995    6.7203    6.0261 N   0  0  0  0  0  0  0  0  0  0  0  0
    7.6491    6.7742    7.4687 C   0  0  1  0  0  0  0  0  0  0  0  0
    9.0465    7.1946    7.9286 C   0  0  1  0  0  0  0  0  0  0  0  0
    7.8652    8.1523    8.0972 C   0  0  1  0  0  0  0  0  0  0  0  0
    4.2713    2.0197    3.1045 C   0  0  0  0  0  0  0  0  0  0  0  0
    3.5646    0.8758    2.7958 C   0  0  0  0  0  0  0  0  0  0  0  0
    1.0039    1.9031    0.0027 H   0  0  0  0  0  0  0  0  0  0  0  0
   -0.5459    1.8868   -0.8726 H   0  0  0  0  0  0  0  0  0  0  0  0
   -0.5289    1.8773    0.9072 H   0  0  0  0  0  0  0  0  0  0  0  0
   -1.0205   -0.3814    0.0098 H   0  0  0  0  0  0  0  0  0  0  0  0
    0.5123   -0.3556   -0.8948 H   0  0  0  0  0  0  0  0  0  0  0  0
    0.6997   -0.5749    3.2845 H   0  0  0  0  0  0  0  0  0  0  0  0
   -0.7557    0.1399    2.5501 H   0  0  0  0  0  0  0  0  0  0  0  0
   -1.3993   -2.0837    1.6613 H   0  0  0  0  0  0  0  0  0  0  0  0
    0.0560   -2.7985    2.3957 H   0  0  0  0  0  0  0  0  0  0  0  0
   -1.2268   -2.1291    3.4323 H   0  0  0  0  0  0  0  0  0  0  0  0
    3.2902    1.2715   -0.5470 H   0  0  0  0  0  0  0  0  0  0  0  0
    4.5424    3.3214   -0.0183 H   0  0  0  0  0  0  0  0  0  0  0  0
    5.4772    3.7868    4.3977 H   0  0  0  0  0  0  0  0  0  0  0  0
    7.4191    5.6207    3.4800 H   0  0  0  0  0  0  0  0  0  0  0  0
    5.8866    6.4959    3.7125 H   0  0  0  0  0  0  0  0  0  0  0  0
    7.7195    7.4333    5.4515 H   0  0  0  0  0  0  0  0  0  0  0  0
    7.1268    6.0257    8.0644 H   0  0  0  0  0  0  0  0  0  0  0  0
    9.4438    6.7225    8.8271 H   0  0  0  0  0  0  0  0  0  0  0  0
    9.7801    7.4311    7.1579 H   0  0  0  0  0  0  0  0  0  0  0  0
    7.8217    9.0188    7.4374 H   0  0  0  0  0  0  0  0  0  0  0  0
    7.4855    8.3102    9.1066 H   0  0  0  0  0  0  0  0  0  0  0  0
    4.5454    2.2268    4.1284 H   0  0  0  0  0  0  0  0  0  0  0  0
    3.2883    0.1853    3.5789 H   0  0  0  0  0  0  0  0  0  0  0  0
  1  2  1  0
  1 25  1  6
  1 26  1  0
  1 27  1  0
  2  3  1  0
  2 28  1  1
  2 29  1  0
  3  4  1  0
  6  3  1  6
  4  5  1  0
  4 30  1  1
  4 31  1  0
  5 32  1  6
  5 33  1  0
  5 34  1  0
  6  7  2  0
  6  8  2  0
  6  9  1  0
  9 24  2  0
  9 10  1  0
 10 11  2  0
 10 35  1  0
 11 12  1  0
 11 36  1  0
 12 13  1  0
 12 23  2  0
 13 14  2  0
 13 15  1  0
 15 16  1  0
 15 37  1  0
 16 17  1  0
 16 38  1  6
 16 39  1  0
 17 18  2  0
 17 19  1  0
 19 20  1  0
 19 40  1  0
 20 22  1  0
 20 21  1  0
 20 41  1  1
 21 22  1  0
 21 42  1  1
 21 43  1  0
 22 44  1  6
 22 45  1  0
 23 24  1  0
 23 46  1  0
 24 47  1  0
M  END
$$$$
