ZINC000008167302
     RDKit          3D

 44 45  0  0  0  0  0  0  0  0999 V2000
   -0.0217    1.4990    0.0173 C   0  0  1  0  0  0  0  0  0  0  0  0
    0.0370   -0.0068   -0.0001 C   0  0  0  0  0  0  0  0  0  0  0  0
    0.2500   -0.7675    1.2832 C   0  0  1  0  0  0  0  0  0  0  0  0
   -0.0993   -0.6643   -1.1481 C   0  0  0  0  0  0  0  0  0  0  0  0
   -0.1225    0.0739   -2.4203 C   0  0  0  0  0  0  0  0  0  0  0  0
    0.0430    1.2787   -2.4273 O   0  0  0  0  0  0  0  0  0  0  0  0
   -0.3273   -0.5849   -3.5780 N   0  0  0  0  0  0  0  0  0  0  0  0
   -0.4267   -2.0511   -3.5968 C   0  0  1  0  0  0  0  0  0  0  0  0
   -1.7531   -2.4439   -4.2592 C   0  0  1  0  0  0  0  0  0  0  0  0
   -1.8813   -1.7090   -5.5255 N   0  0  0  0  0  0  0  0  0  0  0  0
   -2.1340   -2.5184   -6.9479 S   0  0  1  0  0  0  0  0  0  0  0  0
   -1.6711   -1.6631   -7.9840 O   0  0  0  0  0  0  0  0  0  0  0  0
   -1.6431   -3.8374   -6.7516 O   0  0  0  0  0  0  0  0  0  0  0  0
   -3.8768   -2.6630   -7.1633 C   0  0  0  0  0  0  0  0  0  0  0  0
   -4.5478   -3.7583   -6.6527 C   0  0  0  0  0  0  0  0  0  0  0  0
   -5.9151   -3.8717   -6.8217 C   0  0  0  0  0  0  0  0  0  0  0  0
   -6.6114   -2.8896   -7.5010 C   0  0  0  0  0  0  0  0  0  0  0  0
   -8.1019   -3.0134   -7.6856 C   0  0  1  0  0  0  0  0  0  0  0  0
   -8.7573   -2.4056   -6.6094 F   0  0  0  0  0  0  0  0  0  0  0  0
   -8.4781   -2.3835   -8.8768 F   0  0  0  0  0  0  0  0  0  0  0  0
   -8.4540   -4.3662   -7.7421 F   0  0  0  0  0  0  0  0  0  0  0  0
   -5.9405   -1.7935   -8.0104 C   0  0  0  0  0  0  0  0  0  0  0  0
   -4.5738   -1.6782   -7.8381 C   0  0  0  0  0  0  0  0  0  0  0  0
   -1.7819   -0.2428   -5.5067 C   0  0  1  0  0  0  0  0  0  0  0  0
   -0.4611    0.1503   -4.8435 C   0  0  1  0  0  0  0  0  0  0  0  0
    0.9607    1.9037   -0.2263 H   0  0  0  0  0  0  0  0  0  0  0  0
   -0.7489    1.8428   -0.7182 H   0  0  0  0  0  0  0  0  0  0  0  0
   -0.3192    1.8395    1.0091 H   0  0  0  0  0  0  0  0  0  0  0  0
   -0.7152   -0.9921    1.7370 H   0  0  0  0  0  0  0  0  0  0  0  0
    0.7771   -1.6977    1.0710 H   0  0  0  0  0  0  0  0  0  0  0  0
    0.8424   -0.1628    1.9700 H   0  0  0  0  0  0  0  0  0  0  0  0
   -0.1929   -1.7402   -1.1463 H   0  0  0  0  0  0  0  0  0  0  0  0
    0.4041   -2.4668   -4.1669 H   0  0  0  0  0  0  0  0  0  0  0  0
   -0.4005   -2.4326   -2.5761 H   0  0  0  0  0  0  0  0  0  0  0  0
   -1.7603   -3.5159   -4.4561 H   0  0  0  0  0  0  0  0  0  0  0  0
   -2.5818   -2.1848   -3.6004 H   0  0  0  0  0  0  0  0  0  0  0  0
   -4.0038   -4.5257   -6.1219 H   0  0  0  0  0  0  0  0  0  0  0  0
   -6.4393   -4.7279   -6.4233 H   0  0  0  0  0  0  0  0  0  0  0  0
   -6.4846   -1.0260   -8.5408 H   0  0  0  0  0  0  0  0  0  0  0  0
   -4.0497   -0.8219   -8.2361 H   0  0  0  0  0  0  0  0  0  0  0  0
   -1.8081    0.1387   -6.5274 H   0  0  0  0  0  0  0  0  0  0  0  0
   -2.6127    0.1729   -4.9366 H   0  0  0  0  0  0  0  0  0  0  0  0
   -0.4552    1.2225   -4.6472 H   0  0  0  0  0  0  0  0  0  0  0  0
    0.3693   -0.1084   -5.5004 H   0  0  0  0  0  0  0  0  0  0  0  0
  1  2  1  0
  1 26  1  6
  1 27  1  0
  1 28  1  0
  2  3  1  0
  2  4  2  0
  3 29  1  1
  3 30  1  0
  3 31  1  0
  4  5  1  0
  4 32  1  0
  5  6  2  0
  5  7  1  0
  7 25  1  0
  7  8  1  0
  8  9  1  0
  8 33  1  6
  8 34  1  0
  9 10  1  0
  9 35  1  6
  9 36  1  0
 11 10  1  1
 10 24  1  0
 11 12  2  0
 11 13  2  0
 11 14  1  0
 14 23  2  0
 14 15  1  0
 15 16  2  0
 15 37  1  0
 16 17  1  0
 16 38  1  0
 17 18  1  0
 17 22  2  0
 18 19  1  1
 18 20  1  0
 18 21  1  0
 22 23  1  0
 22 39  1  0
 23 40  1  0
 24 25  1  0
 24 41  1  6
 24 42  1  0
 25 43  1  1
 25 44  1  0
M  END
$$$$
