ZINC000001143057
     RDKit          3D

 47 49  0  0  0  0  0  0  0  0999 V2000
    0.0020   -0.0040    0.0120 O   0  0  0  0  0  0  0  0  0  0  0  0
   -0.0144    1.2088    0.0102 C   0  0  0  0  0  0  0  0  0  0  0  0
    1.1435    1.8984    0.0013 N   0  0  0  0  0  0  0  0  0  0  0  0
    2.3633    1.2187    0.0917 C   0  0  0  0  0  0  0  0  0  0  0  0
    3.4250    1.7839    0.7857 C   0  0  0  0  0  0  0  0  0  0  0  0
    4.6277    1.1105    0.8730 C   0  0  0  0  0  0  0  0  0  0  0  0
    4.7754   -0.1250    0.2698 C   0  0  0  0  0  0  0  0  0  0  0  0
    6.0893   -0.8567    0.3666 C   0  0  1  0  0  0  0  0  0  0  0  0
    6.0861   -1.6724    1.5032 F   0  0  0  0  0  0  0  0  0  0  0  0
    6.2681   -1.6469   -0.7739 F   0  0  0  0  0  0  0  0  0  0  0  0
    7.1333    0.0698    0.4605 F   0  0  0  0  0  0  0  0  0  0  0  0
    3.7199   -0.6907   -0.4217 C   0  0  0  0  0  0  0  0  0  0  0  0
    2.5129   -0.0250   -0.5078 C   0  0  0  0  0  0  0  0  0  0  0  0
   -1.3296    1.9446    0.0118 C   0  0  1  0  0  0  0  0  0  0  0  0
   -1.4240    2.8226   -1.2381 C   0  0  1  0  0  0  0  0  0  0  0  0
   -2.7467    3.5952   -1.2158 C   0  0  1  0  0  0  0  0  0  0  0  0
   -3.8511    2.6377   -1.0661 N   0  0  0  0  0  0  0  0  0  0  0  0
   -5.1137    2.6318   -2.1376 S   0  0  1  0  0  0  0  0  0  0  0  0
   -6.2142    2.0435   -1.4577 O   0  0  0  0  0  0  0  0  0  0  0  0
   -5.1592    3.9311   -2.7113 O   0  0  0  0  0  0  0  0  0  0  0  0
   -4.6860    1.5268   -3.4416 C   0  0  0  0  0  0  0  0  0  0  0  0
   -4.0079    1.9963   -4.5510 C   0  0  0  0  0  0  0  0  0  0  0  0
   -3.6724    1.1293   -5.5740 C   0  0  0  0  0  0  0  0  0  0  0  0
   -4.0145   -0.2072   -5.4875 C   0  0  0  0  0  0  0  0  0  0  0  0
   -4.6917   -0.6769   -4.3777 C   0  0  0  0  0  0  0  0  0  0  0  0
   -5.0235    0.1892   -3.3527 C   0  0  0  0  0  0  0  0  0  0  0  0
   -3.8137    1.6853    0.0521 C   0  0  1  0  0  0  0  0  0  0  0  0
   -2.4791    0.9342    0.0155 C   0  0  1  0  0  0  0  0  0  0  0  0
    1.1313    2.8658   -0.0677 H   0  0  0  0  0  0  0  0  0  0  0  0
    3.3105    2.7492    1.2565 H   0  0  0  0  0  0  0  0  0  0  0  0
    5.4538    1.5495    1.4127 H   0  0  0  0  0  0  0  0  0  0  0  0
    3.8384   -1.6558   -0.8917 H   0  0  0  0  0  0  0  0  0  0  0  0
    1.6889   -0.4674   -1.0479 H   0  0  0  0  0  0  0  0  0  0  0  0
   -1.3941    2.5712    0.9013 H   0  0  0  0  0  0  0  0  0  0  0  0
   -0.5919    3.5265   -1.2520 H   0  0  0  0  0  0  0  0  0  0  0  0
   -1.3847    2.1943   -2.1279 H   0  0  0  0  0  0  0  0  0  0  0  0
   -2.7496    4.2905   -0.3764 H   0  0  0  0  0  0  0  0  0  0  0  0
   -2.8643    4.1455   -2.1492 H   0  0  0  0  0  0  0  0  0  0  0  0
   -3.7407    3.0405   -4.6185 H   0  0  0  0  0  0  0  0  0  0  0  0
   -3.1433    1.4963   -6.4411 H   0  0  0  0  0  0  0  0  0  0  0  0
   -3.7529   -0.8844   -6.2871 H   0  0  0  0  0  0  0  0  0  0  0  0
   -4.9593   -1.7211   -4.3103 H   0  0  0  0  0  0  0  0  0  0  0  0
   -5.5526   -0.1778   -2.4857 H   0  0  0  0  0  0  0  0  0  0  0  0
   -3.9036    2.2249    0.9949 H   0  0  0  0  0  0  0  0  0  0  0  0
   -4.6352    0.9755   -0.0449 H   0  0  0  0  0  0  0  0  0  0  0  0
   -2.4298    0.3237   -0.8861 H   0  0  0  0  0  0  0  0  0  0  0  0
   -2.3978    0.2939    0.8939 H   0  0  0  0  0  0  0  0  0  0  0  0
  1  2  2  0
  2  3  1  0
  2 14  1  0
  3  4  1  0
  3 29  1  0
  4 13  2  0
  4  5  1  0
  5  6  2  0
  5 30  1  0
  6  7  1  0
  6 31  1  0
  7  8  1  0
  7 12  2  0
  8  9  1  1
  8 10  1  0
  8 11  1  0
 12 13  1  0
 12 32  1  0
 13 33  1  0
 14 28  1  0
 14 15  1  0
 14 34  1  1
 15 16  1  0
 15 35  1  6
 15 36  1  0
 16 17  1  0
 16 37  1  1
 16 38  1  0
 18 17  1  1
 17 27  1  0
 18 19  2  0
 18 20  2  0
 18 21  1  0
 21 26  2  0
 21 22  1  0
 22 23  2  0
 22 39  1  0
 23 24  1  0
 23 40  1  0
 24 25  2  0
 24 41  1  0
 25 26  1  0
 25 42  1  0
 26 43  1  0
 27 28  1  0
 27 44  1  1
 27 45  1  0
 28 46  1  6
 28 47  1  0
M  END
$$$$
