ZINC000075166549
     RDKit          3D

 35 37  0  0  1  0  0  0  0  0999 V2000
    0.0021   -0.0041    0.0020 O   0  0  0  0  0  0  0  0  0  0  0  0
   -0.0172    1.4168    0.0098 S   0  0  1  0  0  0  0  0  0  0  0  0
    1.1617    2.2101    0.0028 O   0  0  0  0  0  0  0  0  0  0  0  0
   -0.9567    1.9094   -1.3970 C   0  0  0  0  0  0  0  0  0  0  0  0
   -1.8848    1.0442   -1.9458 C   0  0  0  0  0  0  0  0  0  0  0  0
   -2.6219    1.4307   -3.0496 C   0  0  0  0  0  0  0  0  0  0  0  0
   -2.4313    2.6825   -3.6042 C   0  0  0  0  0  0  0  0  0  0  0  0
   -3.2345    3.1036   -4.8078 C   0  0  1  0  0  0  0  0  0  0  0  0
   -4.4138    3.7273   -4.3864 F   0  0  0  0  0  0  0  0  0  0  0  0
   -2.4843    3.9973   -5.5796 F   0  0  0  0  0  0  0  0  0  0  0  0
   -3.5510    1.9771   -5.5746 F   0  0  0  0  0  0  0  0  0  0  0  0
   -1.5042    3.5481   -3.0546 C   0  0  0  0  0  0  0  0  0  0  0  0
   -0.7699    3.1631   -1.9485 C   0  0  0  0  0  0  0  0  0  0  0  0
   -0.8748    1.8654    1.3536 N   0  0  0  0  0  0  0  0  0  0  0  0
   -0.8194    3.1477    2.1007 C   0  0  2  0  0  0  0  0  0  0  0  0
    0.0558    3.7437    1.8419 H   0  0  0  0  0  0  0  0  0  0  0  0
   -0.8219    2.7147    3.5860 C   0  0  1  0  0  0  0  0  0  0  0  0
   -1.5318    1.3440    3.5906 C   0  0  1  0  0  0  0  0  0  0  0  0
   -1.8928    1.0868    2.1037 C   0  0  1  0  0  0  0  0  0  0  0  0
   -1.8761    0.0273    1.8482 H   0  0  0  0  0  0  0  0  0  0  0  0
   -3.2647    1.7310    1.8406 C   0  0  1  0  0  0  0  0  0  0  0  0
   -3.2492    3.0707    2.3413 O   0  0  0  0  0  0  0  0  0  0  0  0
   -2.1373    3.8876    1.8140 C   0  0  1  0  0  0  0  0  0  0  0  0
   -2.0336    0.0662   -1.5125 H   0  0  0  0  0  0  0  0  0  0  0  0
   -3.3464    0.7545   -3.4788 H   0  0  0  0  0  0  0  0  0  0  0  0
   -1.3556    4.5263   -3.4877 H   0  0  0  0  0  0  0  0  0  0  0  0
   -0.0456    3.8394   -1.5191 H   0  0  0  0  0  0  0  0  0  0  0  0
    0.1990    2.6153    3.9547 H   0  0  0  0  0  0  0  0  0  0  0  0
   -1.3770    3.4322    4.1903 H   0  0  0  0  0  0  0  0  0  0  0  0
   -0.8604    0.5695    3.9615 H   0  0  0  0  0  0  0  0  0  0  0  0
   -2.4364    1.3865    4.1971 H   0  0  0  0  0  0  0  0  0  0  0  0
   -3.4627    1.7440    0.7688 H   0  0  0  0  0  0  0  0  0  0  0  0
   -4.0404    1.1596    2.3504 H   0  0  0  0  0  0  0  0  0  0  0  0
   -2.1266    4.8562    2.3138 H   0  0  0  0  0  0  0  0  0  0  0  0
   -2.2654    4.0296    0.7409 H   0  0  0  0  0  0  0  0  0  0  0  0
  1  2  2  0
  2  3  2  0
  2  4  1  0
  2 14  1  1
  4 13  2  0
  4  5  1  0
  5  6  2  0
  5 24  1  0
  6  7  1  0
  6 25  1  0
  7  8  1  0
  7 12  2  0
  8  9  1  1
  8 10  1  0
  8 11  1  0
 12 13  1  0
 12 26  1  0
 13 27  1  0
 14 19  1  0
 14 15  1  0
 15 16  1  6
 15 23  1  0
 15 17  1  0
 17 18  1  0
 17 28  1  1
 17 29  1  0
 18 19  1  0
 18 30  1  1
 18 31  1  0
 19 20  1  6
 19 21  1  0
 21 22  1  0
 21 32  1  6
 21 33  1  0
 22 23  1  0
 23 34  1  1
 23 35  1  0
M  END
$$$$
