ZINC000085423434
     RDKit          3D

 45 46  0  0  0  0  0  0  0  0999 V2000
    0.5389    0.7182    0.5933 C   0  0  1  0  0  0  0  0  0  0  0  0
    0.4135   -0.8016    0.4688 C   0  0  1  0  0  0  0  0  0  0  0  0
   -0.9904   -1.1691    0.4216 O   0  0  0  0  0  0  0  0  0  0  0  0
   -1.2747   -2.4764    0.3122 C   0  0  0  0  0  0  0  0  0  0  0  0
   -0.3802   -3.2867    0.2577 O   0  0  0  0  0  0  0  0  0  0  0  0
   -2.7097   -2.9334    0.2574 C   0  0  1  0  0  0  0  0  0  0  0  0
   -3.4004   -2.3008   -0.9529 C   0  0  1  0  0  0  0  0  0  0  0  0
   -4.8677   -2.7399   -0.9858 C   0  0  1  0  0  0  0  0  0  0  0  0
   -4.9226   -4.2079   -0.9587 N   0  0  0  0  0  0  0  0  0  0  0  0
   -5.7658   -5.0422   -2.1143 S   0  0  1  0  0  0  0  0  0  0  0  0
   -5.9745   -6.3480   -1.5943 O   0  0  0  0  0  0  0  0  0  0  0  0
   -6.8264   -4.1922   -2.5291 O   0  0  0  0  0  0  0  0  0  0  0  0
   -4.7013   -5.2251   -3.5064 C   0  0  0  0  0  0  0  0  0  0  0  0
   -3.3498   -4.9642   -3.3819 C   0  0  0  0  0  0  0  0  0  0  0  0
   -2.5145   -5.1077   -4.4742 C   0  0  0  0  0  0  0  0  0  0  0  0
   -1.0409   -4.8228   -4.3385 C   0  0  1  0  0  0  0  0  0  0  0  0
   -0.3716   -5.9940   -3.9679 F   0  0  0  0  0  0  0  0  0  0  0  0
   -0.5396   -4.3665   -5.5623 F   0  0  0  0  0  0  0  0  0  0  0  0
   -0.8436   -3.8432   -3.3594 F   0  0  0  0  0  0  0  0  0  0  0  0
   -3.0309   -5.5130   -5.6905 C   0  0  0  0  0  0  0  0  0  0  0  0
   -4.3828   -5.7745   -5.8150 C   0  0  0  0  0  0  0  0  0  0  0  0
   -5.2171   -5.6351   -4.7219 C   0  0  0  0  0  0  0  0  0  0  0  0
   -6.6907   -5.9201   -4.8575 C   0  0  1  0  0  0  0  0  0  0  0  0
   -6.9508   -6.4344   -6.1323 F   0  0  0  0  0  0  0  0  0  0  0  0
   -7.0759   -6.8544   -3.8902 F   0  0  0  0  0  0  0  0  0  0  0  0
   -7.4133   -4.7360   -4.6761 F   0  0  0  0  0  0  0  0  0  0  0  0
   -4.2148   -4.9217    0.1129 C   0  0  1  0  0  0  0  0  0  0  0  0
   -2.7549   -4.4581    0.1334 C   0  0  1  0  0  0  0  0  0  0  0  0
    1.5928    0.9941    0.6288 H   0  0  0  0  0  0  0  0  0  0  0  0
    0.0676    1.1934   -0.2670 H   0  0  0  0  0  0  0  0  0  0  0  0
    0.0456    1.0498    1.5070 H   0  0  0  0  0  0  0  0  0  0  0  0
    0.9068   -1.1332   -0.4449 H   0  0  0  0  0  0  0  0  0  0  0  0
    0.8848   -1.2768    1.3291 H   0  0  0  0  0  0  0  0  0  0  0  0
   -3.2232   -2.6278    1.1691 H   0  0  0  0  0  0  0  0  0  0  0  0
   -3.3474   -1.2148   -0.8756 H   0  0  0  0  0  0  0  0  0  0  0  0
   -2.9029   -2.6257   -1.8667 H   0  0  0  0  0  0  0  0  0  0  0  0
   -5.3888   -2.3387   -0.1165 H   0  0  0  0  0  0  0  0  0  0  0  0
   -5.3384   -2.3734   -1.8980 H   0  0  0  0  0  0  0  0  0  0  0  0
   -2.9462   -4.6478   -2.4314 H   0  0  0  0  0  0  0  0  0  0  0  0
   -2.3784   -5.6251   -6.5438 H   0  0  0  0  0  0  0  0  0  0  0  0
   -4.7863   -6.0908   -6.7655 H   0  0  0  0  0  0  0  0  0  0  0  0
   -4.6827   -4.6984    1.0717 H   0  0  0  0  0  0  0  0  0  0  0  0
   -4.2548   -5.9948   -0.0744 H   0  0  0  0  0  0  0  0  0  0  0  0
   -2.2634   -4.7627   -0.7906 H   0  0  0  0  0  0  0  0  0  0  0  0
   -2.2424   -4.9076    0.9839 H   0  0  0  0  0  0  0  0  0  0  0  0
  1  2  1  0
  1 29  1  1
  1 30  1  0
  1 31  1  0
  2  3  1  0
  2 32  1  6
  2 33  1  0
  3  4  1  0
  4  5  2  0
  4  6  1  0
  6 28  1  0
  6  7  1  0
  6 34  1  1
  7  8  1  0
  7 35  1  1
  7 36  1  0
  8  9  1  0
  8 37  1  1
  8 38  1  0
 10  9  1  1
  9 27  1  0
 10 11  2  0
 10 12  2  0
 10 13  1  0
 13 22  2  0
 13 14  1  0
 14 15  2  0
 14 39  1  0
 15 16  1  0
 15 20  1  0
 16 17  1  1
 16 18  1  0
 16 19  1  0
 20 21  2  0
 20 40  1  0
 21 22  1  0
 21 41  1  0
 22 23  1  0
 23 24  1  6
 23 25  1  0
 23 26  1  0
 27 28  1  0
 27 42  1  1
 27 43  1  0
 28 44  1  6
 28 45  1  0
M  END
$$$$
