ZINC000001063050
     RDKit          3D

 63 65  0  0  0  0  0  0  0  0999 V2000
   -9.0479   -6.1174    4.1558 C   0  0  1  0  0  0  0  0  0  0  0  0
   -9.2316   -4.7919    3.6545 O   0  0  0  0  0  0  0  0  0  0  0  0
   -8.2799   -4.3143    2.8100 C   0  0  0  0  0  0  0  0  0  0  0  0
   -7.1948   -5.1071    2.4665 C   0  0  0  0  0  0  0  0  0  0  0  0
   -6.2288   -4.6194    1.6074 C   0  0  0  0  0  0  0  0  0  0  0  0
   -6.3429   -3.3422    1.0907 C   0  0  0  0  0  0  0  0  0  0  0  0
   -5.1090   -2.7230   -0.0042 S   0  0  1  0  0  0  0  0  0  0  0  0
   -5.1590   -1.3063    0.0950 O   0  0  0  0  0  0  0  0  0  0  0  0
   -3.9325   -3.4787    0.2486 O   0  0  0  0  0  0  0  0  0  0  0  0
   -5.5858   -3.1011   -1.5443 N   0  0  0  0  0  0  0  0  0  0  0  0
   -5.2909   -4.4249   -2.0982 C   0  0  1  0  0  0  0  0  0  0  0  0
   -6.4777   -5.3308   -1.8937 C   0  0  0  0  0  0  0  0  0  0  0  0
   -7.4720   -4.9119   -1.3398 O   0  0  0  0  0  0  0  0  0  0  0  0
   -6.4342   -6.6065   -2.3263 N   0  0  0  0  0  0  0  0  0  0  0  0
   -7.5880   -7.4871   -2.1276 C   0  0  1  0  0  0  0  0  0  0  0  0
   -8.5598   -7.3111   -3.2628 C   0  0  1  0  0  0  0  0  0  0  0  0
  -10.0251   -7.4717   -2.8148 C   0  0  1  0  0  0  0  0  0  0  0  0
  -10.2243   -8.6400   -1.8305 C   0  0  1  0  0  0  0  0  0  0  0  0
   -9.4389   -9.8625   -2.2214 C   0  0  1  0  0  0  0  0  0  0  0  0
   -8.0903   -9.8383   -1.4732 C   0  0  1  0  0  0  0  0  0  0  0  0
   -7.1205   -8.9568   -2.1062 C   0  0  1  0  0  0  0  0  0  0  0  0
   -6.3025   -2.1118   -2.3529 C   0  0  1  0  0  0  0  0  0  0  0  0
   -5.3245   -1.3823   -3.2373 C   0  0  0  0  0  0  0  0  0  0  0  0
   -4.7921   -0.1736   -2.8293 C   0  0  0  0  0  0  0  0  0  0  0  0
   -3.8950    0.4956   -3.6406 C   0  0  0  0  0  0  0  0  0  0  0  0
   -3.5299   -0.0441   -4.8598 C   0  0  0  0  0  0  0  0  0  0  0  0
   -4.0616   -1.2533   -5.2674 C   0  0  0  0  0  0  0  0  0  0  0  0
   -4.9555   -1.9245   -4.4542 C   0  0  0  0  0  0  0  0  0  0  0  0
   -7.4240   -2.5500    1.4313 C   0  0  0  0  0  0  0  0  0  0  0  0
   -8.3950   -3.0349    2.2855 C   0  0  0  0  0  0  0  0  0  0  0  0
   -9.5732   -2.1712    2.6558 C   0  0  1  0  0  0  0  0  0  0  0  0
   -9.8762   -6.3741    4.8163 H   0  0  0  0  0  0  0  0  0  0  0  0
   -9.0163   -6.8198    3.3229 H   0  0  0  0  0  0  0  0  0  0  0  0
   -8.1112   -6.1694    4.7108 H   0  0  0  0  0  0  0  0  0  0  0  0
   -7.1049   -6.1047    2.8705 H   0  0  0  0  0  0  0  0  0  0  0  0
   -5.3838   -5.2363    1.3397 H   0  0  0  0  0  0  0  0  0  0  0  0
   -5.0822   -4.3345   -3.1642 H   0  0  0  0  0  0  0  0  0  0  0  0
   -4.4217   -4.8451   -1.5922 H   0  0  0  0  0  0  0  0  0  0  0  0
   -5.6390   -6.9416   -2.7693 H   0  0  0  0  0  0  0  0  0  0  0  0
   -8.0756   -7.2443   -1.1834 H   0  0  0  0  0  0  0  0  0  0  0  0
   -8.4282   -6.3164   -3.6886 H   0  0  0  0  0  0  0  0  0  0  0  0
   -8.3426   -8.0530   -4.0312 H   0  0  0  0  0  0  0  0  0  0  0  0
  -10.3491   -6.5484   -2.3346 H   0  0  0  0  0  0  0  0  0  0  0  0
  -10.6449   -7.6439   -3.6948 H   0  0  0  0  0  0  0  0  0  0  0  0
   -9.9095   -8.3215   -0.8367 H   0  0  0  0  0  0  0  0  0  0  0  0
  -11.2831   -8.8968   -1.7975 H   0  0  0  0  0  0  0  0  0  0  0  0
   -9.9947  -10.7586   -1.9453 H   0  0  0  0  0  0  0  0  0  0  0  0
   -9.2612   -9.8552   -3.2968 H   0  0  0  0  0  0  0  0  0  0  0  0
   -8.2598   -9.5005   -0.4509 H   0  0  0  0  0  0  0  0  0  0  0  0
   -7.6835  -10.8492   -1.4461 H   0  0  0  0  0  0  0  0  0  0  0  0
   -6.9567   -9.2901   -3.1310 H   0  0  0  0  0  0  0  0  0  0  0  0
   -6.1783   -9.0196   -1.5617 H   0  0  0  0  0  0  0  0  0  0  0  0
   -7.0448   -2.6168   -2.9711 H   0  0  0  0  0  0  0  0  0  0  0  0
   -6.8010   -1.3985   -1.6966 H   0  0  0  0  0  0  0  0  0  0  0  0
   -5.0774    0.2481   -1.8768 H   0  0  0  0  0  0  0  0  0  0  0  0
   -3.4796    1.4403   -3.3221 H   0  0  0  0  0  0  0  0  0  0  0  0
   -2.8296    0.4791   -5.4939 H   0  0  0  0  0  0  0  0  0  0  0  0
   -3.7766   -1.6748   -6.2200 H   0  0  0  0  0  0  0  0  0  0  0  0
   -5.3709   -2.8692   -4.7726 H   0  0  0  0  0  0  0  0  0  0  0  0
   -7.5110   -1.5527    1.0260 H   0  0  0  0  0  0  0  0  0  0  0  0
  -10.3803   -2.3318    1.9411 H   0  0  0  0  0  0  0  0  0  0  0  0
   -9.9162   -2.4342    3.6565 H   0  0  0  0  0  0  0  0  0  0  0  0
   -9.2751   -1.1229    2.6378 H   0  0  0  0  0  0  0  0  0  0  0  0
  1  2  1  0
  1 32  1  1
  1 33  1  0
  1 34  1  0
  2  3  1  0
  3 30  2  0
  3  4  1  0
  4  5  2  0
  4 35  1  0
  5  6  1  0
  5 36  1  0
  6  7  1  0
  6 29  2  0
  7  8  2  0
  7  9  2  0
  7 10  1  6
 10 11  1  0
 10 22  1  0
 11 12  1  0
 11 37  1  6
 11 38  1  0
 12 13  2  0
 12 14  1  0
 14 15  1  0
 14 39  1  0
 15 21  1  0
 15 16  1  0
 15 40  1  1
 16 17  1  0
 16 41  1  6
 16 42  1  0
 17 18  1  0
 17 43  1  1
 17 44  1  0
 18 19  1  0
 18 45  1  1
 18 46  1  0
 19 20  1  0
 19 47  1  6
 19 48  1  0
 20 21  1  0
 20 49  1  1
 20 50  1  0
 21 51  1  6
 21 52  1  0
 22 23  1  0
 22 53  1  6
 22 54  1  0
 23 28  2  0
 23 24  1  0
 24 25  2  0
 24 55  1  0
 25 26  1  0
 25 56  1  0
 26 27  2  0
 26 57  1  0
 27 28  1  0
 27 58  1  0
 28 59  1  0
 29 30  1  0
 29 60  1  0
 30 31  1  0
 31 61  1  6
 31 62  1  0
 31 63  1  0
M  END
$$$$
