ZINC000409127209
     RDKit          3D

 53 55  0  0  0  0  0  0  0  0999 V2000
   -1.8549    2.0231    0.2233 C   0  0  1  0  0  0  0  0  0  0  0  0
   -1.5624    0.6044    0.1230 O   0  0  0  0  0  0  0  0  0  0  0  0
   -2.6019   -0.2400    0.2136 C   0  0  0  0  0  0  0  0  0  0  0  0
   -3.7192    0.1919    0.3714 O   0  0  0  0  0  0  0  0  0  0  0  0
   -2.3753   -1.7269    0.1183 C   0  0  1  0  0  0  0  0  0  0  0  0
   -3.6254   -2.4081    0.2423 O   0  0  0  0  0  0  0  0  0  0  0  0
   -3.5975   -3.7653    0.1776 C   0  0  0  0  0  0  0  0  0  0  0  0
   -2.3911   -4.4280    0.0041 C   0  0  0  0  0  0  0  0  0  0  0  0
   -2.3654   -5.8076   -0.0610 C   0  0  0  0  0  0  0  0  0  0  0  0
   -3.5407   -6.5280    0.0462 C   0  0  0  0  0  0  0  0  0  0  0  0
   -3.5045   -8.2876   -0.0377 S   0  0  1  0  0  0  0  0  0  0  0  0
   -4.7383   -8.6870   -0.6188 O   0  0  0  0  0  0  0  0  0  0  0  0
   -2.2395   -8.6374   -0.5824 O   0  0  0  0  0  0  0  0  0  0  0  0
   -3.5160   -8.8530    1.5187 N   0  0  0  0  0  0  0  0  0  0  0  0
   -4.7848   -8.9944    2.2373 C   0  0  1  0  0  0  0  0  0  0  0  0
   -5.2844  -10.4096    2.1009 C   0  0  0  0  0  0  0  0  0  0  0  0
   -6.1049  -10.7540    1.0431 C   0  0  0  0  0  0  0  0  0  0  0  0
   -6.5631  -12.0522    0.9180 C   0  0  0  0  0  0  0  0  0  0  0  0
   -6.2004  -13.0061    1.8504 C   0  0  0  0  0  0  0  0  0  0  0  0
   -5.3791  -12.6619    2.9077 C   0  0  0  0  0  0  0  0  0  0  0  0
   -4.9174  -11.3647    3.0305 C   0  0  0  0  0  0  0  0  0  0  0  0
   -2.2574   -9.2117    2.1771 C   0  0  1  0  0  0  0  0  0  0  0  0
   -1.7874   -8.0579    3.0250 C   0  0  0  0  0  0  0  0  0  0  0  0
   -0.9226   -7.1184    2.4956 C   0  0  0  0  0  0  0  0  0  0  0  0
   -0.4915   -6.0600    3.2734 C   0  0  0  0  0  0  0  0  0  0  0  0
   -0.9255   -5.9410    4.5804 C   0  0  0  0  0  0  0  0  0  0  0  0
   -1.7909   -6.8801    5.1095 C   0  0  0  0  0  0  0  0  0  0  0  0
   -2.2255   -7.9361    4.3304 C   0  0  0  0  0  0  0  0  0  0  0  0
   -4.7443   -5.8699    0.2196 C   0  0  0  0  0  0  0  0  0  0  0  0
   -4.7747   -4.4906    0.2906 C   0  0  0  0  0  0  0  0  0  0  0  0
   -0.9295    2.5921    0.1344 H   0  0  0  0  0  0  0  0  0  0  0  0
   -2.5367    2.3110   -0.5769 H   0  0  0  0  0  0  0  0  0  0  0  0
   -2.3182    2.2312    1.1878 H   0  0  0  0  0  0  0  0  0  0  0  0
   -1.9259   -1.9649   -0.8458 H   0  0  0  0  0  0  0  0  0  0  0  0
   -1.7074   -2.0446    0.9189 H   0  0  0  0  0  0  0  0  0  0  0  0
   -1.4729   -3.8657   -0.0804 H   0  0  0  0  0  0  0  0  0  0  0  0
   -1.4265   -6.3240   -0.1960 H   0  0  0  0  0  0  0  0  0  0  0  0
   -4.6331   -8.7627    3.2916 H   0  0  0  0  0  0  0  0  0  0  0  0
   -5.5193   -8.3077    1.8164 H   0  0  0  0  0  0  0  0  0  0  0  0
   -6.3883  -10.0088    0.3146 H   0  0  0  0  0  0  0  0  0  0  0  0
   -7.2048  -12.3211    0.0919 H   0  0  0  0  0  0  0  0  0  0  0  0
   -6.5590  -14.0201    1.7530 H   0  0  0  0  0  0  0  0  0  0  0  0
   -5.0961  -13.4071    3.6364 H   0  0  0  0  0  0  0  0  0  0  0  0
   -4.2758  -11.0958    3.8565 H   0  0  0  0  0  0  0  0  0  0  0  0
   -2.4140  -10.0864    2.8083 H   0  0  0  0  0  0  0  0  0  0  0  0
   -1.5043   -9.4384    1.4223 H   0  0  0  0  0  0  0  0  0  0  0  0
   -0.5836   -7.2113    1.4744 H   0  0  0  0  0  0  0  0  0  0  0  0
    0.1847   -5.3264    2.8600 H   0  0  0  0  0  0  0  0  0  0  0  0
   -0.5881   -5.1146    5.1883 H   0  0  0  0  0  0  0  0  0  0  0  0
   -2.1297   -6.7873    6.1308 H   0  0  0  0  0  0  0  0  0  0  0  0
   -2.9017   -8.6697    4.7438 H   0  0  0  0  0  0  0  0  0  0  0  0
   -5.6609   -6.4348    0.3034 H   0  0  0  0  0  0  0  0  0  0  0  0
   -5.7150   -3.9770    0.4260 H   0  0  0  0  0  0  0  0  0  0  0  0
  1  2  1  0
  1 31  1  6
  1 32  1  0
  1 33  1  0
  2  3  1  0
  3  4  2  0
  3  5  1  0
  5  6  1  0
  5 34  1  6
  5 35  1  0
  6  7  1  0
  7 30  2  0
  7  8  1  0
  8  9  2  0
  8 36  1  0
  9 10  1  0
  9 37  1  0
 10 11  1  0
 10 29  2  0
 11 12  2  0
 11 13  2  0
 11 14  1  1
 14 15  1  0
 14 22  1  0
 15 16  1  0
 15 38  1  1
 15 39  1  0
 16 21  2  0
 16 17  1  0
 17 18  2  0
 17 40  1  0
 18 19  1  0
 18 41  1  0
 19 20  2  0
 19 42  1  0
 20 21  1  0
 20 43  1  0
 21 44  1  0
 22 23  1  0
 22 45  1  1
 22 46  1  0
 23 28  2  0
 23 24  1  0
 24 25  2  0
 24 47  1  0
 25 26  1  0
 25 48  1  0
 26 27  2  0
 26 49  1  0
 27 28  1  0
 27 50  1  0
 28 51  1  0
 29 30  1  0
 29 52  1  0
 30 53  1  0
M  END
$$$$
