ZINC000007971016
     RDKit          3D

 47 49  0  0  1  0  0  0  0  0999 V2000
    0.6445    1.2768    0.6986 O   0  0  0  0  0  0  0  0  0  0  0  0
   -0.0372    1.4026   -0.2967 C   0  0  0  0  0  0  0  0  0  0  0  0
    0.4355    0.9992   -1.4926 N   0  0  0  0  0  0  0  0  0  0  0  0
    1.7487    0.5289   -1.6034 C   0  0  0  0  0  0  0  0  0  0  0  0
    2.0829   -0.3719   -2.6061 C   0  0  0  0  0  0  0  0  0  0  0  0
    3.3800   -0.8341   -2.7128 C   0  0  0  0  0  0  0  0  0  0  0  0
    4.3453   -0.4013   -1.8222 C   0  0  0  0  0  0  0  0  0  0  0  0
    5.7595   -0.9081   -1.9412 C   0  0  1  0  0  0  0  0  0  0  0  0
    6.4892   -0.0613   -2.7824 F   0  0  0  0  0  0  0  0  0  0  0  0
    6.3540   -0.9331   -0.6751 F   0  0  0  0  0  0  0  0  0  0  0  0
    5.7482   -2.2006   -2.4767 F   0  0  0  0  0  0  0  0  0  0  0  0
    4.0158    0.4960   -0.8230 C   0  0  0  0  0  0  0  0  0  0  0  0
    2.7218    0.9664   -0.7145 C   0  0  0  0  0  0  0  0  0  0  0  0
   -1.4151    2.0044   -0.1951 C   0  0  2  0  0  0  0  0  0  0  0  0
   -1.6763    2.4808   -1.1401 H   0  0  0  0  0  0  0  0  0  0  0  0
   -1.4393    3.0453    0.9286 C   0  0  1  0  0  0  0  0  0  0  0  0
   -2.8710    3.5512    1.1191 C   0  0  1  0  0  0  0  0  0  0  0  0
   -3.7767    2.3850    1.5214 C   0  0  1  0  0  0  0  0  0  0  0  0
   -3.7789    1.3366    0.4044 C   0  0  1  0  0  0  0  0  0  0  0  0
   -2.3915    0.9504    0.1116 N   0  0  0  0  0  0  0  0  0  0  0  0
   -1.9365   -0.6417    0.1333 S   0  0  1  0  0  0  0  0  0  0  0  0
   -3.1143   -1.3991   -0.1085 O   0  0  0  0  0  0  0  0  0  0  0  0
   -0.7716   -0.7371   -0.6748 O   0  0  0  0  0  0  0  0  0  0  0  0
   -1.4324   -1.0177    1.7792 C   0  0  0  0  0  0  0  0  0  0  0  0
   -0.1137   -0.8428    2.1552 C   0  0  0  0  0  0  0  0  0  0  0  0
    0.2818   -1.1378    3.4465 C   0  0  0  0  0  0  0  0  0  0  0  0
   -0.6414   -1.6073    4.3620 C   0  0  0  0  0  0  0  0  0  0  0  0
   -1.9603   -1.7813    3.9862 C   0  0  0  0  0  0  0  0  0  0  0  0
   -2.3567   -1.4823    2.6961 C   0  0  0  0  0  0  0  0  0  0  0  0
   -0.1347    1.0347   -2.2765 H   0  0  0  0  0  0  0  0  0  0  0  0
    1.3294   -0.7108   -3.3015 H   0  0  0  0  0  0  0  0  0  0  0  0
    3.6406   -1.5347   -3.4923 H   0  0  0  0  0  0  0  0  0  0  0  0
    4.7719    0.8321   -0.1290 H   0  0  0  0  0  0  0  0  0  0  0  0
    2.4650    1.6672    0.0661 H   0  0  0  0  0  0  0  0  0  0  0  0
   -1.0883    2.5894    1.8544 H   0  0  0  0  0  0  0  0  0  0  0  0
   -0.7904    3.8805    0.6649 H   0  0  0  0  0  0  0  0  0  0  0  0
   -2.8870    4.3100    1.9015 H   0  0  0  0  0  0  0  0  0  0  0  0
   -3.2302    3.9847    0.1858 H   0  0  0  0  0  0  0  0  0  0  0  0
   -3.4037    1.9353    2.4416 H   0  0  0  0  0  0  0  0  0  0  0  0
   -4.7914    2.7501    1.6797 H   0  0  0  0  0  0  0  0  0  0  0  0
   -4.3420    0.4607    0.7265 H   0  0  0  0  0  0  0  0  0  0  0  0
   -4.2354    1.7580   -0.4913 H   0  0  0  0  0  0  0  0  0  0  0  0
    0.6077   -0.4761    1.4400 H   0  0  0  0  0  0  0  0  0  0  0  0
    1.3123   -1.0018    3.7400 H   0  0  0  0  0  0  0  0  0  0  0  0
   -0.3323   -1.8384    5.3706 H   0  0  0  0  0  0  0  0  0  0  0  0
   -2.6816   -2.1484    4.7014 H   0  0  0  0  0  0  0  0  0  0  0  0
   -3.3871   -1.6182    2.4026 H   0  0  0  0  0  0  0  0  0  0  0  0
  1  2  2  0
  2  3  1  0
  2 14  1  0
  3  4  1  0
  3 30  1  0
  4 13  2  0
  4  5  1  0
  5  6  2  0
  5 31  1  0
  6  7  1  0
  6 32  1  0
  7  8  1  0
  7 12  2  0
  8  9  1  6
  8 10  1  0
  8 11  1  0
 12 13  1  0
 12 33  1  0
 13 34  1  0
 14 15  1  6
 14 20  1  0
 14 16  1  0
 16 17  1  0
 16 35  1  1
 16 36  1  0
 17 18  1  0
 17 37  1  1
 17 38  1  0
 18 19  1  0
 18 39  1  1
 18 40  1  0
 19 20  1  0
 19 41  1  1
 19 42  1  0
 21 20  1  1
 21 22  2  0
 21 23  2  0
 21 24  1  0
 24 29  2  0
 24 25  1  0
 25 26  2  0
 25 43  1  0
 26 27  1  0
 26 44  1  0
 27 28  2  0
 27 45  1  0
 28 29  1  0
 28 46  1  0
 29 47  1  0
M  END
$$$$
