ZINC000027338565
     RDKit          3D

 51 51  0  0  1  0  0  0  0  0999 V2000
   -0.0187    1.5258    0.0104 C   0  0  1  0  0  0  0  0  0  0  0  0
    0.0021   -0.0041    0.0020 C   0  0  1  0  0  0  0  0  0  0  0  0
    0.7421   -0.5109    1.2415 C   0  0  1  0  0  0  0  0  0  0  0  0
    0.2852   -0.0874    2.1360 H   0  0  0  0  0  0  0  0  0  0  0  0
    0.6554   -2.0374    1.2986 C   0  0  1  0  0  0  0  0  0  0  0  0
    2.1476   -0.1038    1.1716 N   0  0  0  0  0  0  0  0  0  0  0  0
    2.8685    0.0265    2.3029 C   0  0  0  0  0  0  0  0  0  0  0  0
    2.3536   -0.1931    3.3788 O   0  0  0  0  0  0  0  0  0  0  0  0
    4.3144    0.4453    2.2310 C   0  0  1  0  0  0  0  0  0  0  0  0
    4.8956    0.5167    3.6445 C   0  0  1  0  0  0  0  0  0  0  0  0
    6.3414    0.9354    3.5726 C   0  0  0  0  0  0  0  0  0  0  0  0
    7.3330   -0.0208    3.4568 C   0  0  0  0  0  0  0  0  0  0  0  0
    8.6593    0.3633    3.3908 C   0  0  0  0  0  0  0  0  0  0  0  0
    8.9940    1.7036    3.4402 C   0  0  0  0  0  0  0  0  0  0  0  0
   10.6845    2.1932    3.3567 S   0  0  1  0  0  0  0  0  0  0  0  0
   10.7618    3.4746    3.9660 O   0  0  0  0  0  0  0  0  0  0  0  0
   11.4475    1.0772    3.7945 O   0  0  0  0  0  0  0  0  0  0  0  0
   11.0528    2.4129    1.7572 N   0  0  0  0  0  0  0  0  0  0  0  0
   10.8676    3.7270    1.1367 C   0  0  1  0  0  0  0  0  0  0  0  0
   12.1890    4.4975    1.1701 C   0  0  1  0  0  0  0  0  0  0  0  0
   11.5638    1.2932    0.9626 C   0  0  1  0  0  0  0  0  0  0  0  0
   10.4042    0.6192    0.2264 C   0  0  1  0  0  0  0  0  0  0  0  0
    8.0023    2.6599    3.5546 C   0  0  0  0  0  0  0  0  0  0  0  0
    6.6758    2.2760    3.6167 C   0  0  0  0  0  0  0  0  0  0  0  0
    1.0039    1.9031    0.0027 H   0  0  0  0  0  0  0  0  0  0  0  0
   -0.5459    1.8868   -0.8726 H   0  0  0  0  0  0  0  0  0  0  0  0
   -0.5289    1.8773    0.9072 H   0  0  0  0  0  0  0  0  0  0  0  0
   -1.0205   -0.3814    0.0098 H   0  0  0  0  0  0  0  0  0  0  0  0
    0.5123   -0.3556   -0.8948 H   0  0  0  0  0  0  0  0  0  0  0  0
    1.1123   -2.4609    0.4042 H   0  0  0  0  0  0  0  0  0  0  0  0
    1.1826   -2.3985    2.1817 H   0  0  0  0  0  0  0  0  0  0  0  0
   -0.3904   -2.3402    1.3506 H   0  0  0  0  0  0  0  0  0  0  0  0
    2.5595    0.0718    0.3111 H   0  0  0  0  0  0  0  0  0  0  0  0
    4.8747   -0.2826    1.6441 H   0  0  0  0  0  0  0  0  0  0  0  0
    4.3858    1.4251    1.7588 H   0  0  0  0  0  0  0  0  0  0  0  0
    4.3353    1.2446    4.2314 H   0  0  0  0  0  0  0  0  0  0  0  0
    4.8241   -0.4631    4.1167 H   0  0  0  0  0  0  0  0  0  0  0  0
    7.0715   -1.0679    3.4182 H   0  0  0  0  0  0  0  0  0  0  0  0
    9.4340   -0.3838    3.3011 H   0  0  0  0  0  0  0  0  0  0  0  0
   10.5478    3.5988    0.1026 H   0  0  0  0  0  0  0  0  0  0  0  0
   10.1082    4.2841    1.6854 H   0  0  0  0  0  0  0  0  0  0  0  0
   12.5088    4.6258    2.2042 H   0  0  0  0  0  0  0  0  0  0  0  0
   12.9484    3.9404    0.6214 H   0  0  0  0  0  0  0  0  0  0  0  0
   12.0512    5.4753    0.7084 H   0  0  0  0  0  0  0  0  0  0  0  0
   12.2886    1.6631    0.2375 H   0  0  0  0  0  0  0  0  0  0  0  0
   12.0452    0.5702    1.6212 H   0  0  0  0  0  0  0  0  0  0  0  0
    9.9228    1.3422   -0.4322 H   0  0  0  0  0  0  0  0  0  0  0  0
   10.7844   -0.2139   -0.3648 H   0  0  0  0  0  0  0  0  0  0  0  0
    9.6794    0.2493    0.9515 H   0  0  0  0  0  0  0  0  0  0  0  0
    8.2638    3.7071    3.5928 H   0  0  0  0  0  0  0  0  0  0  0  0
    5.9011    3.0231    3.7061 H   0  0  0  0  0  0  0  0  0  0  0  0
  1  2  1  0
  1 25  1  6
  1 26  1  0
  1 27  1  0
  2  3  1  0
  2 28  1  1
  2 29  1  0
  3  4  1  1
  3  5  1  0
  3  6  1  0
  5 30  1  6
  5 31  1  0
  5 32  1  0
  6  7  1  0
  6 33  1  0
  7  8  2  0
  7  9  1  0
  9 10  1  0
  9 34  1  6
  9 35  1  0
 10 11  1  0
 10 36  1  1
 10 37  1  0
 11 24  2  0
 11 12  1  0
 12 13  2  0
 12 38  1  0
 13 14  1  0
 13 39  1  0
 14 15  1  0
 14 23  2  0
 15 16  2  0
 15 17  2  0
 15 18  1  6
 18 19  1  0
 18 21  1  0
 19 20  1  0
 19 40  1  6
 19 41  1  0
 20 42  1  1
 20 43  1  0
 20 44  1  0
 21 22  1  0
 21 45  1  6
 21 46  1  0
 22 47  1  6
 22 48  1  0
 22 49  1  0
 23 24  1  0
 23 50  1  0
 24 51  1  0
M  END
$$$$
