ZINC000408614220
     RDKit          3D

 65 67  0  0  0  0  0  0  0  0999 V2000
   -0.0184    1.5028    0.0103 C   0  0  1  0  0  0  0  0  0  0  0  0
    0.0021   -0.0041    0.0020 C   0  0  0  0  0  0  0  0  0  0  0  0
    0.0057   -0.6887   -1.1989 C   0  0  0  0  0  0  0  0  0  0  0  0
    0.0245   -2.0709   -1.2065 C   0  0  0  0  0  0  0  0  0  0  0  0
    0.0400   -2.7685   -0.0132 C   0  0  0  0  0  0  0  0  0  0  0  0
    0.0633   -4.5303   -0.0229 S   0  0  1  0  0  0  0  0  0  0  0  0
   -0.4690   -4.9455    1.2275 O   0  0  0  0  0  0  0  0  0  0  0  0
   -0.4824   -4.9319   -1.2719 O   0  0  0  0  0  0  0  0  0  0  0  0
    1.6514   -4.9995   -0.0340 N   0  0  0  0  0  0  0  0  0  0  0  0
    2.3607   -5.2139    1.2298 C   0  0  1  0  0  0  0  0  0  0  0  0
    2.3045   -6.6971    1.6009 C   0  0  1  0  0  0  0  0  0  0  0  0
    3.0341   -6.9177    2.9009 C   0  0  0  0  0  0  0  0  0  0  0  0
    4.3868   -7.2026    2.8947 C   0  0  0  0  0  0  0  0  0  0  0  0
    5.0560   -7.4049    4.0872 C   0  0  0  0  0  0  0  0  0  0  0  0
    4.3727   -7.3219    5.2860 C   0  0  0  0  0  0  0  0  0  0  0  0
    3.0203   -7.0361    5.2923 C   0  0  0  0  0  0  0  0  0  0  0  0
    2.3519   -6.8295    4.1000 C   0  0  0  0  0  0  0  0  0  0  0  0
    2.3471   -5.2001   -1.3075 C   0  0  1  0  0  0  0  0  0  0  0  0
    3.0899   -3.9422   -1.6778 C   0  0  0  0  0  0  0  0  0  0  0  0
    3.0428   -2.9735   -0.9496 O   0  0  0  0  0  0  0  0  0  0  0  0
    3.8065   -3.8937   -2.8182 N   0  0  0  0  0  0  0  0  0  0  0  0
    4.5286   -2.6709   -3.1782 C   0  0  1  0  0  0  0  0  0  0  0  0
    5.8953   -2.6648   -2.4907 C   0  0  1  0  0  0  0  0  0  0  0  0
    6.7963   -1.6226   -3.1565 C   0  0  1  0  0  0  0  0  0  0  0  0
    6.3806   -0.2227   -2.6995 C   0  0  1  0  0  0  0  0  0  0  0  0
    5.0968    0.1893   -3.4227 C   0  0  1  0  0  0  0  0  0  0  0  0
    5.2046   -0.1780   -4.9039 C   0  0  1  0  0  0  0  0  0  0  0  0
    4.1987   -1.2838   -5.2298 C   0  0  1  0  0  0  0  0  0  0  0  0
    4.7195   -2.6195   -4.6952 C   0  0  1  0  0  0  0  0  0  0  0  0
    0.0378   -2.0839    1.1877 C   0  0  0  0  0  0  0  0  0  0  0  0
    0.0229   -0.7016    1.1953 C   0  0  0  0  0  0  0  0  0  0  0  0
    1.0042    1.8801    0.0026 H   0  0  0  0  0  0  0  0  0  0  0  0
   -0.5455    1.8639   -0.8728 H   0  0  0  0  0  0  0  0  0  0  0  0
   -0.5286    1.8543    0.9071 H   0  0  0  0  0  0  0  0  0  0  0  0
   -0.0064   -0.1436   -2.1312 H   0  0  0  0  0  0  0  0  0  0  0  0
    0.0266   -2.6057   -2.1448 H   0  0  0  0  0  0  0  0  0  0  0  0
    3.4005   -4.9060    1.1197 H   0  0  0  0  0  0  0  0  0  0  0  0
    1.8886   -4.6246    2.0159 H   0  0  0  0  0  0  0  0  0  0  0  0
    1.2647   -7.0050    1.7111 H   0  0  0  0  0  0  0  0  0  0  0  0
    2.7766   -7.2865    0.8148 H   0  0  0  0  0  0  0  0  0  0  0  0
    4.9206   -7.2675    1.9581 H   0  0  0  0  0  0  0  0  0  0  0  0
    6.1127   -7.6282    4.0822 H   0  0  0  0  0  0  0  0  0  0  0  0
    4.8955   -7.4807    6.2176 H   0  0  0  0  0  0  0  0  0  0  0  0
    2.4863   -6.9716    6.2288 H   0  0  0  0  0  0  0  0  0  0  0  0
    1.2953   -6.6062    4.1049 H   0  0  0  0  0  0  0  0  0  0  0  0
    3.0540   -6.0240   -1.2095 H   0  0  0  0  0  0  0  0  0  0  0  0
    1.6206   -5.4353   -2.0853 H   0  0  0  0  0  0  0  0  0  0  0  0
    3.8442   -4.6685   -3.4007 H   0  0  0  0  0  0  0  0  0  0  0  0
    3.9554   -1.8021   -2.8546 H   0  0  0  0  0  0  0  0  0  0  0  0
    5.7707   -2.4171   -1.4366 H   0  0  0  0  0  0  0  0  0  0  0  0
    6.3518   -3.6505   -2.5809 H   0  0  0  0  0  0  0  0  0  0  0  0
    7.8330   -1.8044   -2.8733 H   0  0  0  0  0  0  0  0  0  0  0  0
    6.6973   -1.6955   -4.2396 H   0  0  0  0  0  0  0  0  0  0  0  0
    6.2057   -0.2287   -1.6237 H   0  0  0  0  0  0  0  0  0  0  0  0
    7.1739    0.4868   -2.9347 H   0  0  0  0  0  0  0  0  0  0  0  0
    4.2476   -0.3313   -2.9802 H   0  0  0  0  0  0  0  0  0  0  0  0
    4.9542    1.2655   -3.3247 H   0  0  0  0  0  0  0  0  0  0  0  0
    4.9890    0.7002   -5.5125 H   0  0  0  0  0  0  0  0  0  0  0  0
    6.2136   -0.5299   -5.1184 H   0  0  0  0  0  0  0  0  0  0  0  0
    3.2413   -1.0537   -4.7623 H   0  0  0  0  0  0  0  0  0  0  0  0
    4.0691   -1.3504   -6.3101 H   0  0  0  0  0  0  0  0  0  0  0  0
    5.7791   -2.7171   -4.9315 H   0  0  0  0  0  0  0  0  0  0  0  0
    4.1671   -3.4367   -5.1588 H   0  0  0  0  0  0  0  0  0  0  0  0
    0.0503   -2.6289    2.1200 H   0  0  0  0  0  0  0  0  0  0  0  0
    0.0211   -0.1667    2.1335 H   0  0  0  0  0  0  0  0  0  0  0  0
  1  2  1  0
  1 32  1  6
  1 33  1  0
  1 34  1  0
  2 31  2  0
  2  3  1  0
  3  4  2  0
  3 35  1  0
  4  5  1  0
  4 36  1  0
  5  6  1  0
  5 30  2  0
  6  7  2  0
  6  8  2  0
  6  9  1  6
  9 10  1  0
  9 18  1  0
 10 11  1  0
 10 37  1  6
 10 38  1  0
 11 12  1  0
 11 39  1  1
 11 40  1  0
 12 17  2  0
 12 13  1  0
 13 14  2  0
 13 41  1  0
 14 15  1  0
 14 42  1  0
 15 16  2  0
 15 43  1  0
 16 17  1  0
 16 44  1  0
 17 45  1  0
 18 19  1  0
 18 46  1  1
 18 47  1  0
 19 20  2  0
 19 21  1  0
 21 22  1  0
 21 48  1  0
 22 29  1  0
 22 23  1  0
 22 49  1  1
 23 24  1  0
 23 50  1  1
 23 51  1  0
 24 25  1  0
 24 52  1  6
 24 53  1  0
 25 26  1  0
 25 54  1  1
 25 55  1  0
 26 27  1  0
 26 56  1  1
 26 57  1  0
 27 28  1  0
 27 58  1  6
 27 59  1  0
 28 29  1  0
 28 60  1  1
 28 61  1  0
 29 62  1  1
 29 63  1  0
 30 31  1  0
 30 64  1  0
 31 65  1  0
M  END
$$$$
