ZINC000408614020
     RDKit          3D

 67 69  0  0  1  0  0  0  0  0999 V2000
   -9.0495   -6.0385    4.2296 C   0  0  1  0  0  0  0  0  0  0  0  0
   -9.2701   -4.7516    3.6487 O   0  0  0  0  0  0  0  0  0  0  0  0
   -8.3119   -4.2824    2.8054 C   0  0  0  0  0  0  0  0  0  0  0  0
   -7.1875   -5.0463    2.5386 C   0  0  0  0  0  0  0  0  0  0  0  0
   -6.2144   -4.5679    1.6805 C   0  0  0  0  0  0  0  0  0  0  0  0
   -6.3603   -3.3279    1.0877 C   0  0  0  0  0  0  0  0  0  0  0  0
   -5.1164   -2.7238   -0.0043 S   0  0  1  0  0  0  0  0  0  0  0  0
   -5.1509   -1.3065    0.0931 O   0  0  0  0  0  0  0  0  0  0  0  0
   -3.9491   -3.4923    0.2526 O   0  0  0  0  0  0  0  0  0  0  0  0
   -5.5931   -3.0984   -1.5454 N   0  0  0  0  0  0  0  0  0  0  0  0
   -5.3007   -4.4219   -2.1012 C   0  0  1  0  0  0  0  0  0  0  0  0
   -6.4898   -5.3255   -1.8990 C   0  0  0  0  0  0  0  0  0  0  0  0
   -7.4835   -4.9052   -1.3451 O   0  0  0  0  0  0  0  0  0  0  0  0
   -6.4488   -6.6006   -2.3336 N   0  0  0  0  0  0  0  0  0  0  0  0
   -7.6047   -7.4789   -2.1370 C   0  0  2  0  0  0  0  0  0  0  0  0
   -8.5224   -6.8981   -2.2300 H   0  0  0  0  0  0  0  0  0  0  0  0
   -7.5372   -8.1063   -0.7432 C   0  0  1  0  0  0  0  0  0  0  0  0
   -7.5912   -8.5841   -3.1950 C   0  0  1  0  0  0  0  0  0  0  0  0
   -7.7839   -7.9656   -4.5811 C   0  0  1  0  0  0  0  0  0  0  0  0
   -7.7706   -9.0542   -5.6232 C   0  0  0  0  0  0  0  0  0  0  0  0
   -6.5779   -9.4366   -6.2080 C   0  0  0  0  0  0  0  0  0  0  0  0
   -6.5657  -10.4351   -7.1639 C   0  0  0  0  0  0  0  0  0  0  0  0
   -7.7462  -11.0515   -7.5346 C   0  0  0  0  0  0  0  0  0  0  0  0
   -8.9388  -10.6697   -6.9491 C   0  0  0  0  0  0  0  0  0  0  0  0
   -8.9504   -9.6742   -5.9901 C   0  0  0  0  0  0  0  0  0  0  0  0
   -6.3071   -2.1062   -2.3528 C   0  0  1  0  0  0  0  0  0  0  0  0
   -5.3272   -1.3791   -3.2373 C   0  0  0  0  0  0  0  0  0  0  0  0
   -4.7917   -0.1718   -2.8293 C   0  0  0  0  0  0  0  0  0  0  0  0
   -3.8929    0.4951   -3.6406 C   0  0  0  0  0  0  0  0  0  0  0  0
   -3.5292   -0.0456   -4.8598 C   0  0  0  0  0  0  0  0  0  0  0  0
   -4.0640   -1.2534   -5.2674 C   0  0  0  0  0  0  0  0  0  0  0  0
   -4.9595   -1.9223   -4.4541 C   0  0  0  0  0  0  0  0  0  0  0  0
   -7.4805   -2.5605    1.3494 C   0  0  0  0  0  0  0  0  0  0  0  0
   -8.4616   -3.0361    2.2039 C   0  0  0  0  0  0  0  0  0  0  0  0
   -9.5639   -2.2827    2.4624 O   0  0  0  0  0  0  0  0  0  0  0  0
   -9.6453   -1.0097    1.8181 C   0  0  1  0  0  0  0  0  0  0  0  0
   -9.8869   -6.2920    4.8796 H   0  0  0  0  0  0  0  0  0  0  0  0
   -8.9644   -6.7841    3.4391 H   0  0  0  0  0  0  0  0  0  0  0  0
   -8.1290   -6.0208    4.8130 H   0  0  0  0  0  0  0  0  0  0  0  0
   -7.0708   -6.0152    3.0010 H   0  0  0  0  0  0  0  0  0  0  0  0
   -5.3382   -5.1644    1.4733 H   0  0  0  0  0  0  0  0  0  0  0  0
   -5.0912   -4.3302   -3.1669 H   0  0  0  0  0  0  0  0  0  0  0  0
   -4.4328   -4.8448   -1.5953 H   0  0  0  0  0  0  0  0  0  0  0  0
   -5.6540   -6.9367   -2.7766 H   0  0  0  0  0  0  0  0  0  0  0  0
   -7.5469   -7.3190    0.0105 H   0  0  0  0  0  0  0  0  0  0  0  0
   -8.3972   -8.7599   -0.5970 H   0  0  0  0  0  0  0  0  0  0  0  0
   -6.6196   -8.6871   -0.6503 H   0  0  0  0  0  0  0  0  0  0  0  0
   -6.6361   -9.1083   -3.1607 H   0  0  0  0  0  0  0  0  0  0  0  0
   -8.3993   -9.2879   -2.9956 H   0  0  0  0  0  0  0  0  0  0  0  0
   -8.7390   -7.4414   -4.6154 H   0  0  0  0  0  0  0  0  0  0  0  0
   -6.9758   -7.2618   -4.7805 H   0  0  0  0  0  0  0  0  0  0  0  0
   -5.6556   -8.9550   -5.9184 H   0  0  0  0  0  0  0  0  0  0  0  0
   -5.6339  -10.7334   -7.6214 H   0  0  0  0  0  0  0  0  0  0  0  0
   -7.7367  -11.8311   -8.2819 H   0  0  0  0  0  0  0  0  0  0  0  0
   -9.8611  -11.1511   -7.2389 H   0  0  0  0  0  0  0  0  0  0  0  0
   -9.8821   -9.3759   -5.5326 H   0  0  0  0  0  0  0  0  0  0  0  0
   -7.0513   -2.6083   -2.9710 H   0  0  0  0  0  0  0  0  0  0  0  0
   -6.8028   -1.3917   -1.6957 H   0  0  0  0  0  0  0  0  0  0  0  0
   -5.0759    0.2506   -1.8768 H   0  0  0  0  0  0  0  0  0  0  0  0
   -3.4751    1.4387   -3.3222 H   0  0  0  0  0  0  0  0  0  0  0  0
   -2.8275    0.4758   -5.4940 H   0  0  0  0  0  0  0  0  0  0  0  0
   -3.7801   -1.6756   -6.2200 H   0  0  0  0  0  0  0  0  0  0  0  0
   -5.3773   -2.8660   -4.7726 H   0  0  0  0  0  0  0  0  0  0  0  0
   -7.5921   -1.5919    0.8849 H   0  0  0  0  0  0  0  0  0  0  0  0
   -9.6320   -1.1481    0.7370 H   0  0  0  0  0  0  0  0  0  0  0  0
  -10.5710   -0.5135    2.1096 H   0  0  0  0  0  0  0  0  0  0  0  0
   -8.7949   -0.3965    2.1164 H   0  0  0  0  0  0  0  0  0  0  0  0
  1  2  1  0
  1 37  1  1
  1 38  1  0
  1 39  1  0
  2  3  1  0
  3 34  2  0
  3  4  1  0
  4  5  2  0
  4 40  1  0
  5  6  1  0
  5 41  1  0
  6  7  1  0
  6 33  2  0
  7  8  2  0
  7  9  2  0
  7 10  1  6
 10 11  1  0
 10 26  1  0
 11 12  1  0
 11 42  1  6
 11 43  1  0
 12 13  2  0
 12 14  1  0
 14 15  1  0
 14 44  1  0
 15 16  1  1
 15 17  1  0
 15 18  1  0
 17 45  1  1
 17 46  1  0
 17 47  1  0
 18 19  1  0
 18 48  1  6
 18 49  1  0
 19 20  1  0
 19 50  1  1
 19 51  1  0
 20 25  2  0
 20 21  1  0
 21 22  2  0
 21 52  1  0
 22 23  1  0
 22 53  1  0
 23 24  2  0
 23 54  1  0
 24 25  1  0
 24 55  1  0
 25 56  1  0
 26 27  1  0
 26 57  1  6
 26 58  1  0
 27 32  2  0
 27 28  1  0
 28 29  2  0
 28 59  1  0
 29 30  1  0
 29 60  1  0
 30 31  2  0
 30 61  1  0
 31 32  1  0
 31 62  1  0
 32 63  1  0
 33 34  1  0
 33 64  1  0
 34 35  1  0
 35 36  1  0
 36 65  1  6
 36 66  1  0
 36 67  1  0
M  END
$$$$
