ZINC000409391461
     RDKit          3D

 63 64  0  0  1  0  0  0  0  0999 V2000
   -0.0187    1.5258    0.0104 C   0  0  1  0  0  0  0  0  0  0  0  0
    0.0021   -0.0041    0.0020 C   0  0  1  0  0  0  0  0  0  0  0  0
    0.7182   -0.4975   -1.2568 C   0  0  1  0  0  0  0  0  0  0  0  0
    0.7390   -2.0273   -1.2652 C   0  0  2  0  0  0  0  0  0  0  0  0
    1.1870   -2.3897   -0.3400 H   0  0  0  0  0  0  0  0  0  0  0  0
    1.5619   -2.5197   -2.4574 C   0  0  1  0  0  0  0  0  0  0  0  0
   -0.6313   -2.5337   -1.3752 N   0  0  0  0  0  0  0  0  0  0  0  0
   -0.9349   -3.7625   -0.9121 C   0  0  0  0  0  0  0  0  0  0  0  0
   -0.0737   -4.4490   -0.4043 O   0  0  0  0  0  0  0  0  0  0  0  0
   -2.3445   -4.2833   -1.0253 C   0  0  1  0  0  0  0  0  0  0  0  0
   -2.4146   -5.6306   -0.4541 N   0  0  0  0  0  0  0  0  0  0  0  0
   -2.6151   -5.8059    0.9865 C   0  0  1  0  0  0  0  0  0  0  0  0
   -4.1109   -5.7525    1.3035 C   0  0  1  0  0  0  0  0  0  0  0  0
   -4.3171   -5.9328    2.7854 C   0  0  0  0  0  0  0  0  0  0  0  0
   -4.4811   -7.2008    3.3111 C   0  0  0  0  0  0  0  0  0  0  0  0
   -4.6703   -7.3662    4.6704 C   0  0  0  0  0  0  0  0  0  0  0  0
   -4.6950   -6.2637    5.5040 C   0  0  0  0  0  0  0  0  0  0  0  0
   -4.5302   -4.9959    4.9784 C   0  0  0  0  0  0  0  0  0  0  0  0
   -4.3367   -4.8308    3.6196 C   0  0  0  0  0  0  0  0  0  0  0  0
   -2.2672   -6.9553   -1.4368 S   0  0  1  0  0  0  0  0  0  0  0  0
   -2.9039   -8.0301   -0.7596 O   0  0  0  0  0  0  0  0  0  0  0  0
   -2.6374   -6.5304   -2.7413 O   0  0  0  0  0  0  0  0  0  0  0  0
   -0.5541   -7.3603   -1.5129 C   0  0  0  0  0  0  0  0  0  0  0  0
    0.2452   -6.7957   -2.4889 C   0  0  0  0  0  0  0  0  0  0  0  0
    1.5902   -7.1107   -2.5531 C   0  0  0  0  0  0  0  0  0  0  0  0
    2.1392   -7.9935   -1.6376 C   0  0  0  0  0  0  0  0  0  0  0  0
    3.4618   -8.3040   -1.6991 O   0  0  0  0  0  0  0  0  0  0  0  0
    4.2266   -7.6827   -2.7341 C   0  0  1  0  0  0  0  0  0  0  0  0
    1.3343   -8.5618   -0.6544 C   0  0  0  0  0  0  0  0  0  0  0  0
    1.8688   -9.4286    0.2469 O   0  0  0  0  0  0  0  0  0  0  0  0
    0.9832   -9.9729    1.2275 C   0  0  1  0  0  0  0  0  0  0  0  0
   -0.0111   -8.2379   -0.5925 C   0  0  0  0  0  0  0  0  0  0  0  0
    1.0039    1.9031    0.0027 H   0  0  0  0  0  0  0  0  0  0  0  0
   -0.5459    1.8868   -0.8726 H   0  0  0  0  0  0  0  0  0  0  0  0
   -0.5289    1.8773    0.9072 H   0  0  0  0  0  0  0  0  0  0  0  0
    0.5293   -0.3651    0.8851 H   0  0  0  0  0  0  0  0  0  0  0  0
   -1.0205   -0.3814    0.0098 H   0  0  0  0  0  0  0  0  0  0  0  0
    0.1910   -0.1364   -2.1398 H   0  0  0  0  0  0  0  0  0  0  0  0
    1.7408   -0.1202   -1.2645 H   0  0  0  0  0  0  0  0  0  0  0  0
    2.5814   -2.1429   -2.3755 H   0  0  0  0  0  0  0  0  0  0  0  0
    1.5766   -3.6095   -2.4634 H   0  0  0  0  0  0  0  0  0  0  0  0
    1.1138   -2.1573   -3.3826 H   0  0  0  0  0  0  0  0  0  0  0  0
   -1.3201   -1.9846   -1.7814 H   0  0  0  0  0  0  0  0  0  0  0  0
   -3.0206   -3.6229   -0.4824 H   0  0  0  0  0  0  0  0  0  0  0  0
   -2.6358   -4.3182   -2.0751 H   0  0  0  0  0  0  0  0  0  0  0  0
   -2.2126   -6.7708    1.2946 H   0  0  0  0  0  0  0  0  0  0  0  0
   -2.1010   -5.0093    1.5244 H   0  0  0  0  0  0  0  0  0  0  0  0
   -4.5134   -4.7875    0.9954 H   0  0  0  0  0  0  0  0  0  0  0  0
   -4.6249   -6.5491    0.7655 H   0  0  0  0  0  0  0  0  0  0  0  0
   -4.4617   -8.0621    2.6599 H   0  0  0  0  0  0  0  0  0  0  0  0
   -4.7990   -8.3567    5.0811 H   0  0  0  0  0  0  0  0  0  0  0  0
   -4.8435   -6.3929    6.5660 H   0  0  0  0  0  0  0  0  0  0  0  0
   -4.5499   -4.1345    5.6296 H   0  0  0  0  0  0  0  0  0  0  0  0
   -4.2079   -3.8403    3.2089 H   0  0  0  0  0  0  0  0  0  0  0  0
   -0.1817   -6.1072   -3.2032 H   0  0  0  0  0  0  0  0  0  0  0  0
    2.2124   -6.6686   -3.3172 H   0  0  0  0  0  0  0  0  0  0  0  0
    3.8156   -7.9587   -3.7052 H   0  0  0  0  0  0  0  0  0  0  0  0
    4.1851   -6.5999   -2.6164 H   0  0  0  0  0  0  0  0  0  0  0  0
    5.2625   -8.0157   -2.6701 H   0  0  0  0  0  0  0  0  0  0  0  0
    0.5540   -9.1637    1.8184 H   0  0  0  0  0  0  0  0  0  0  0  0
    0.1844  -10.5230    0.7302 H   0  0  0  0  0  0  0  0  0  0  0  0
    1.5358  -10.6470    1.8819 H   0  0  0  0  0  0  0  0  0  0  0  0
   -0.6378   -8.6775    0.1694 H   0  0  0  0  0  0  0  0  0  0  0  0
  1  2  1  0
  1 33  1  6
  1 34  1  0
  1 35  1  0
  2  3  1  0
  2 36  1  1
  2 37  1  0
  3  4  1  0
  3 38  1  6
  3 39  1  0
  4  5  1  1
  4  6  1  0
  4  7  1  0
  6 40  1  1
  6 41  1  0
  6 42  1  0
  7  8  1  0
  7 43  1  0
  8  9  2  0
  8 10  1  0
 10 11  1  0
 10 44  1  1
 10 45  1  0
 11 12  1  0
 20 11  1  1
 12 13  1  0
 12 46  1  1
 12 47  1  0
 13 14  1  0
 13 48  1  6
 13 49  1  0
 14 19  2  0
 14 15  1  0
 15 16  2  0
 15 50  1  0
 16 17  1  0
 16 51  1  0
 17 18  2  0
 17 52  1  0
 18 19  1  0
 18 53  1  0
 19 54  1  0
 20 21  2  0
 20 22  2  0
 20 23  1  0
 23 32  2  0
 23 24  1  0
 24 25  2  0
 24 55  1  0
 25 26  1  0
 25 56  1  0
 26 27  1  0
 26 29  2  0
 27 28  1  0
 28 57  1  6
 28 58  1  0
 28 59  1  0
 29 30  1  0
 29 32  1  0
 30 31  1  0
 31 60  1  1
 31 61  1  0
 31 62  1  0
 32 63  1  0
M  END
$$$$
