ZINC000299804014
     RDKit          3D

 30 31  0  0  1  0  0  0  0  0999 V2000
    0.0021   -0.0041    0.0020 O   0  0  0  0  0  0  0  0  0  0  0  0
   -0.0145    1.2150    0.0087 C   0  0  0  0  0  0  0  0  0  0  0  0
    1.0330    1.8389    0.0021 O   0  0  0  0  0  0  0  0  0  0  0  0
   -1.3296    1.9507    0.0190 C   0  0  2  0  0  0  0  0  0  0  0  0
   -1.9840    1.5517    0.7940 H   0  0  0  0  0  0  0  0  0  0  0  0
   -2.0095    1.8625   -1.3612 C   0  0  1  0  0  0  0  0  0  0  0  0
   -2.1040    3.2637   -1.7975 N   0  0  0  0  0  0  0  0  0  0  0  0
   -1.5775    4.0550   -0.8537 C   0  0  0  0  0  0  0  0  0  0  0  0
   -1.5257    5.2654   -0.9566 O   0  0  0  0  0  0  0  0  0  0  0  0
   -1.1135    3.3917    0.2174 N   0  0  0  0  0  0  0  0  0  0  0  0
   -0.4899    4.0064    1.3919 C   0  0  1  0  0  0  0  0  0  0  0  0
   -1.5503    4.3267    2.4138 C   0  0  0  0  0  0  0  0  0  0  0  0
   -2.1854    5.5542    2.3892 C   0  0  0  0  0  0  0  0  0  0  0  0
   -3.1581    5.8480    3.3265 C   0  0  0  0  0  0  0  0  0  0  0  0
   -3.4958    4.9142    4.2881 C   0  0  0  0  0  0  0  0  0  0  0  0
   -4.5558    5.2347    5.3103 C   0  0  1  0  0  0  0  0  0  0  0  0
   -5.8070    4.8411    4.8237 F   0  0  0  0  0  0  0  0  0  0  0  0
   -4.2806    4.5489    6.4982 F   0  0  0  0  0  0  0  0  0  0  0  0
   -4.5638    6.6116    5.5578 F   0  0  0  0  0  0  0  0  0  0  0  0
   -2.8616    3.6861    4.3119 C   0  0  0  0  0  0  0  0  0  0  0  0
   -1.8917    3.3908    3.3722 C   0  0  0  0  0  0  0  0  0  0  0  0
   -1.3958    1.2867   -2.0539 H   0  0  0  0  0  0  0  0  0  0  0  0
   -3.0025    1.4221   -1.2711 H   0  0  0  0  0  0  0  0  0  0  0  0
   -2.4868    3.5667   -2.6357 H   0  0  0  0  0  0  0  0  0  0  0  0
    0.2332    3.3143    1.8234 H   0  0  0  0  0  0  0  0  0  0  0  0
    0.0178    4.9241    1.0953 H   0  0  0  0  0  0  0  0  0  0  0  0
   -1.9215    6.2838    1.6380 H   0  0  0  0  0  0  0  0  0  0  0  0
   -3.6538    6.8074    3.3078 H   0  0  0  0  0  0  0  0  0  0  0  0
   -3.1258    2.9564    5.0629 H   0  0  0  0  0  0  0  0  0  0  0  0
   -1.3962    2.4314    3.3907 H   0  0  0  0  0  0  0  0  0  0  0  0
  1  2  2  0
  2  3  1  0
  2  4  1  0
  4  5  1  1
  4 10  1  0
  4  6  1  0
  6  7  1  0
  6 22  1  6
  6 23  1  0
  7  8  1  0
  7 24  1  0
  8  9  2  0
  8 10  1  0
 10 11  1  0
 11 12  1  0
 11 25  1  1
 11 26  1  0
 12 21  2  0
 12 13  1  0
 13 14  2  0
 13 27  1  0
 14 15  1  0
 14 28  1  0
 15 16  1  0
 15 20  2  0
 16 17  1  6
 16 18  1  0
 16 19  1  0
 20 21  1  0
 20 29  1  0
 21 30  1  0
M  END
$$$$
