@<TRIPOS>MOLECULE
ZINC000016576323
 62 64 0 0 0
SMALL
GASTEIGER

@<TRIPOS>ATOM
      1 C          -0.0187    1.5258    0.0104 C.3     1  UNL1       -0.0466
      2 C           0.0021   -0.0041    0.0020 C.3     1  UNL1        0.0206
      3 H           0.5293   -0.3651    0.8851 H       1  UNL1        0.0495
      4 C          -1.4333   -0.5336    0.0129 C.3     1  UNL1       -0.0308
      5 C          -1.4133   -2.0590    0.1302 C.3     1  UNL1       -0.0260
      6 C          -2.8271   -2.5806    0.1409 C.ar    1  UNL1       -0.0473
      7 C          -3.5022   -2.7230    1.3388 C.ar    1  UNL1       -0.0586
      8 C          -4.7990   -3.2015    1.3486 C.ar    1  UNL1       -0.0615
      9 C          -5.4209   -3.5371    0.1605 C.ar    1  UNL1       -0.0617
     10 C          -4.7461   -3.3939   -1.0374 C.ar    1  UNL1       -0.0615
     11 C          -3.4508   -2.9114   -1.0476 C.ar    1  UNL1       -0.0586
     12 N           0.6878   -0.4765   -1.2033 N.am    1  UNL1       -0.3116
     13 C           2.0310   -0.5870   -1.2149 C.2     1  UNL1        0.2290
     14 O           2.6720   -0.2952   -0.2276 O.2     1  UNL1       -0.2743
     15 C           2.7363   -1.0730   -2.4548 C.3     1  UNL1        0.0968
     16 N           4.1811   -1.1040   -2.2143 N.3     1  UNL1       -0.1675
     17 C           4.7928   -2.2733   -1.5780 C.3     1  UNL1        0.0250
     18 C           5.0951   -3.3321   -2.6402 C.3     1  UNL1       -0.0132
     19 C           5.7244   -4.5349   -1.9857 C.ar    1  UNL1       -0.0461
     20 C           7.0979   -4.6069   -1.8471 C.ar    1  UNL1       -0.0585
     21 C           7.6751   -5.7102   -1.2467 C.ar    1  UNL1       -0.0615
     22 C           6.8788   -6.7413   -0.7845 C.ar    1  UNL1       -0.0617
     23 C           5.5052   -6.6689   -0.9223 C.ar    1  UNL1       -0.0615
     24 C           4.9277   -5.5636   -1.5188 C.ar    1  UNL1       -0.0585
     25 S           5.1228    0.1827   -2.6616 S.O2    1  UNL1        0.0613
     26 O           6.4037   -0.3471   -2.9745 O.2     1  UNL1       -0.1528
     27 O           4.3513    0.9445   -3.5800 O.2     1  UNL1       -0.1528
     28 C           5.3375    1.1931   -1.2341 C.ar    1  UNL1        0.1055
     29 C           4.4356    2.2044   -0.9611 C.ar    1  UNL1       -0.0353
     30 C           4.6040    2.9971    0.1588 C.ar    1  UNL1       -0.0599
     31 C           5.6742    2.7781    1.0059 C.ar    1  UNL1       -0.0616
     32 C           6.5757    1.7662    0.7334 C.ar    1  UNL1       -0.0599
     33 C           6.4048    0.9707   -0.3841 C.ar    1  UNL1       -0.0353
     34 H           1.0039    1.9031    0.0027 H       1  UNL1        0.0247
     35 H          -0.5459    1.8868   -0.8726 H       1  UNL1        0.0247
     36 H          -0.5289    1.8773    0.9072 H       1  UNL1        0.0247
     37 H          -1.9701   -0.1109    0.8621 H       1  UNL1        0.0286
     38 H          -1.9334   -0.2470   -0.9122 H       1  UNL1        0.0286
     39 H          -0.8764   -2.4817   -0.7190 H       1  UNL1        0.0314
     40 H          -0.9132   -2.3457    1.0553 H       1  UNL1        0.0314
     41 H          -3.0163   -2.4608    2.2670 H       1  UNL1        0.0620
     42 H          -5.3263   -3.3135    2.2845 H       1  UNL1        0.0618
     43 H          -6.4339   -3.9116    0.1683 H       1  UNL1        0.0618
     44 H          -5.2319   -3.6564   -1.9656 H       1  UNL1        0.0618
     45 H          -2.9236   -2.7994   -1.9835 H       1  UNL1        0.0620
     46 H           0.1751   -0.7099   -1.9930 H       1  UNL1        0.1490
     47 H           2.3875   -2.0757   -2.7018 H       1  UNL1        0.0539
     48 H           2.5204   -0.3987   -3.2836 H       1  UNL1        0.0539
     49 H           5.7195   -1.9764   -1.0868 H       1  UNL1        0.0447
     50 H           4.1059   -2.6857   -0.8390 H       1  UNL1        0.0447
     51 H           4.1684   -3.6290   -3.1314 H       1  UNL1        0.0326
     52 H           5.7821   -2.9197   -3.3792 H       1  UNL1        0.0326
     53 H           7.7200   -3.8014   -2.2082 H       1  UNL1        0.0620
     54 H           8.7482   -5.7668   -1.1391 H       1  UNL1        0.0618
     55 H           7.3298   -7.6036   -0.3161 H       1  UNL1        0.0618
     56 H           4.8831   -7.4746   -0.5615 H       1  UNL1        0.0618
     57 H           3.8546   -5.5070   -1.6264 H       1  UNL1        0.0620
     58 H           3.5995    2.3755   -1.6230 H       1  UNL1        0.0637
     59 H           3.8997    3.7877    0.3717 H       1  UNL1        0.0618
     60 H           5.8062    3.3979    1.8805 H       1  UNL1        0.0618
     61 H           7.4120    1.5953    1.3951 H       1  UNL1        0.0618
     62 H           7.1091    0.1801   -0.5970 H       1  UNL1        0.0637
@<TRIPOS>BOND
     1     1     2    1
     2     1    34    1
     3     1    35    1
     4     1    36    1
     5     2     3    1
     6     2     4    1
     7     2    12    1
     8     4     5    1
     9     4    37    1
    10     4    38    1
    11     5     6    1
    12     5    39    1
    13     5    40    1
    14     6    11   ar
    15     6     7   ar
    16     7     8   ar
    17     7    41    1
    18     8     9   ar
    19     8    42    1
    20     9    10   ar
    21     9    43    1
    22    10    11   ar
    23    10    44    1
    24    11    45    1
    25    12    13   am
    26    12    46    1
    27    13    14    2
    28    13    15    1
    29    15    16    1
    30    15    47    1
    31    15    48    1
    32    16    17    1
    33    25    16    1
    34    17    18    1
    35    17    49    1
    36    17    50    1
    37    18    19    1
    38    18    51    1
    39    18    52    1
    40    19    24   ar
    41    19    20   ar
    42    20    21   ar
    43    20    53    1
    44    21    22   ar
    45    21    54    1
    46    22    23   ar
    47    22    55    1
    48    23    24   ar
    49    23    56    1
    50    24    57    1
    51    25    26    2
    52    25    27    2
    53    25    28    1
    54    28    33   ar
    55    28    29   ar
    56    29    30   ar
    57    29    58    1
    58    30    31   ar
    59    30    59    1
    60    31    32   ar
    61    31    60    1
    62    32    33   ar
    63    32    61    1
    64    33    62    1
