@<TRIPOS>MOLECULE
ZINC000048142393
 42 43 0 0 0
SMALL
GASTEIGER

@<TRIPOS>ATOM
      1 C          -0.0199    1.1989   -0.1326 C.3     1  UNL1       -0.0343
      2 C          -0.0035   -0.3053    0.1463 C.3     1  UNL1        0.1495
      3 H           0.5037   -0.8206   -0.6694 H       1  UNL1        0.0630
      4 C           0.7268   -0.5688    1.4379 C.2     1  UNL1        0.2396
      5 O           0.1020   -0.7669    2.4583 O.2     1  UNL1       -0.2735
      6 N           2.0743   -0.5842    1.4592 N.am    1  UNL1       -0.2969
      7 C           2.8446   -0.3397    0.2316 C.3     1  UNL1        0.0305
      8 C           3.8165    0.8192    0.4856 C.3     1  UNL1        0.0293
      9 N           4.5420    0.5581    1.7368 N.pl3   1  UNL1       -0.3122
     10 C           5.9318    0.5431    1.7588 C.ar    1  UNL1        0.1213
     11 C           6.6436    0.9953    0.6527 C.ar    1  UNL1       -0.0212
     12 C           8.0264    0.9752    0.6883 C.ar    1  UNL1       -0.0454
     13 C           8.6529    0.5018    1.8333 C.ar    1  UNL1        0.0730
     14 C          10.1571    0.4621    1.9169 C.3     1  UNL1        0.4188
     15 F          10.6268    1.6696    2.4446 F       1  UNL1       -0.1658
     16 F          10.5504   -0.5937    2.7462 F       1  UNL1       -0.1658
     17 F          10.6903    0.2736    0.6373 F       1  UNL1       -0.1658
     18 C           7.8839    0.0682    2.8949 C.ar    1  UNL1        0.0413
     19 N           6.5663    0.1035    2.8349 N.ar    1  UNL1       -0.2398
     20 C           3.7717    0.3136    2.9643 C.3     1  UNL1        0.0293
     21 C           2.7998   -0.8398    2.7114 C.3     1  UNL1        0.0305
     22 S          -1.7070   -0.9142    0.2798 S.O2    1  UNL1       -0.0228
     23 C          -2.3819   -0.5003   -1.3523 C.3     1  UNL1        0.0553
     24 O          -1.6732   -2.3288    0.4102 O.2     1  UNL1       -0.1739
     25 O          -2.3879   -0.1431    1.2601 O.2     1  UNL1       -0.1739
     26 H           1.0037    1.5648   -0.2128 H       1  UNL1        0.0253
     27 H          -0.5481    1.3895   -1.0668 H       1  UNL1        0.0253
     28 H          -0.5271    1.7142    0.6832 H       1  UNL1        0.0253
     29 H           3.4053   -1.2361   -0.0330 H       1  UNL1        0.0480
     30 H           2.1659   -0.0768   -0.5798 H       1  UNL1        0.0480
     31 H           4.5248    0.8902   -0.3399 H       1  UNL1        0.0480
     32 H           3.2589    1.7516    0.5738 H       1  UNL1        0.0480
     33 H           6.1238    1.3568   -0.2223 H       1  UNL1        0.0652
     34 H           8.6056    1.3197   -0.1556 H       1  UNL1        0.0625
     35 H           8.3671   -0.3008    3.7875 H       1  UNL1        0.0836
     36 H           4.4504    0.0507    3.7757 H       1  UNL1        0.0480
     37 H           3.2110    1.2100    3.2290 H       1  UNL1        0.0480
     38 H           2.0923   -0.9097    3.5376 H       1  UNL1        0.0480
     39 H           3.3553   -1.7734    2.6222 H       1  UNL1        0.0480
     40 H          -1.8048   -1.0098   -2.1240 H       1  UNL1        0.0464
     41 H          -3.4227   -0.8194   -1.4067 H       1  UNL1        0.0464
     42 H          -2.3237    0.5771   -1.5069 H       1  UNL1        0.0464
@<TRIPOS>BOND
     1     1     2    1
     2     1    26    1
     3     1    27    1
     4     1    28    1
     5     2     3    1
     6     2     4    1
     7    22     2    1
     8     4     5    2
     9     4     6   am
    10     6    21    1
    11     6     7    1
    12     7     8    1
    13     7    29    1
    14     7    30    1
    15     8     9    1
    16     8    31    1
    17     8    32    1
    18     9    10    1
    19     9    20    1
    20    10    19   ar
    21    10    11   ar
    22    11    12   ar
    23    11    33    1
    24    12    13   ar
    25    12    34    1
    26    13    14    1
    27    13    18   ar
    28    14    15    1
    29    14    16    1
    30    14    17    1
    31    18    19   ar
    32    18    35    1
    33    20    21    1
    34    20    36    1
    35    20    37    1
    36    21    38    1
    37    21    39    1
    38    22    23    1
    39    22    24    2
    40    22    25    2
    41    23    40    1
    42    23    41    1
    43    23    42    1
