@<TRIPOS>MOLECULE
ZINC000408609486
 49 49 0 0 0
SMALL
GASTEIGER

@<TRIPOS>ATOM
      1 C          -0.0187    1.5258    0.0104 C.3     1  UNL1       -0.0636
      2 C           0.0021   -0.0041    0.0020 C.3     1  UNL1       -0.0376
      3 C           0.7421   -0.5109    1.2415 C.3     1  UNL1        0.0202
      4 H           0.2852   -0.0874    2.1360 H       1  UNL1        0.0495
      5 C           0.6554   -2.0374    1.2986 C.3     1  UNL1       -0.0466
      6 N           2.1476   -0.1038    1.1716 N.am    1  UNL1       -0.3099
      7 C           2.8685    0.0265    2.3029 C.2     1  UNL1        0.2509
      8 O           2.3536   -0.1931    3.3788 O.2     1  UNL1       -0.2721
      9 C           4.3144    0.4453    2.2310 C.3     1  UNL1        0.1651
     10 O           4.8572    0.5120    3.5512 O.3     1  UNL1       -0.4828
     11 C           6.1612    0.8777    3.6644 C.ar    1  UNL1        0.1213
     12 C           6.9014    1.1719    2.5286 C.ar    1  UNL1       -0.0181
     13 C           8.2266    1.5438    2.6463 C.ar    1  UNL1       -0.0319
     14 C           8.8155    1.6225    3.8948 C.ar    1  UNL1        0.1057
     15 S          10.5061    2.0967    4.0416 S.O2    1  UNL1        0.0608
     16 O          10.9643    1.5709    5.2797 O.2     1  UNL1       -0.1528
     17 O          11.1174    1.7942    2.7950 O.2     1  UNL1       -0.1528
     18 N          10.5416    3.7455    4.1919 N.3     1  UNL1       -0.1771
     19 C          10.4795    4.3615    5.5197 C.3     1  UNL1        0.0177
     20 C          11.8981    4.6514    6.0142 C.3     1  UNL1       -0.0507
     21 C          10.6349    4.5881    2.9971 C.3     1  UNL1        0.0177
     22 C           9.2319    5.0228    2.5687 C.3     1  UNL1       -0.0507
     23 C           8.0797    1.3303    5.0284 C.ar    1  UNL1       -0.0319
     24 C           6.7527    0.9629    4.9164 C.ar    1  UNL1       -0.0181
     25 H           1.0039    1.9031    0.0027 H       1  UNL1        0.0230
     26 H          -0.5459    1.8868   -0.8726 H       1  UNL1        0.0230
     27 H          -0.5289    1.8773    0.9072 H       1  UNL1        0.0230
     28 H          -1.0205   -0.3814    0.0098 H       1  UNL1        0.0280
     29 H           0.5123   -0.3556   -0.8948 H       1  UNL1        0.0280
     30 H           1.1826   -2.3985    2.1817 H       1  UNL1        0.0247
     31 H          -0.3904   -2.3402    1.3506 H       1  UNL1        0.0247
     32 H           1.1123   -2.4609    0.4042 H       1  UNL1        0.0247
     33 H           2.5595    0.0718    0.3111 H       1  UNL1        0.1491
     34 H           4.8747   -0.2826    1.6441 H       1  UNL1        0.0795
     35 H           4.3858    1.4251    1.7588 H       1  UNL1        0.0795
     36 H           6.4421    1.1099    1.5531 H       1  UNL1        0.0655
     37 H           8.8033    1.7730    1.7624 H       1  UNL1        0.0638
     38 H           9.9173    5.2935    5.4619 H       1  UNL1        0.0441
     39 H           9.9850    3.6812    6.2130 H       1  UNL1        0.0441
     40 H          12.4603    3.7193    6.0719 H       1  UNL1        0.0243
     41 H          12.3926    5.3316    5.3208 H       1  UNL1        0.0243
     42 H          11.8519    5.1097    7.0020 H       1  UNL1        0.0243
     43 H          11.2361    5.4695    3.2202 H       1  UNL1        0.0441
     44 H          11.1027    4.0239    2.1903 H       1  UNL1        0.0441
     45 H           9.3014    5.6497    1.6797 H       1  UNL1        0.0243
     46 H           8.6308    4.1413    2.3456 H       1  UNL1        0.0243
     47 H           8.7641    5.5869    3.3755 H       1  UNL1        0.0243
     48 H           8.5419    1.3928    6.0026 H       1  UNL1        0.0638
     49 H           6.1785    0.7347    5.8021 H       1  UNL1        0.0655
@<TRIPOS>BOND
     1     1     2    1
     2     1    25    1
     3     1    26    1
     4     1    27    1
     5     2     3    1
     6     2    28    1
     7     2    29    1
     8     3     4    1
     9     3     5    1
    10     3     6    1
    11     5    30    1
    12     5    31    1
    13     5    32    1
    14     6     7   am
    15     6    33    1
    16     7     8    2
    17     7     9    1
    18     9    10    1
    19     9    34    1
    20     9    35    1
    21    10    11    1
    22    11    24   ar
    23    11    12   ar
    24    12    13   ar
    25    12    36    1
    26    13    14   ar
    27    13    37    1
    28    14    15    1
    29    14    23   ar
    30    15    16    2
    31    15    17    2
    32    15    18    1
    33    18    19    1
    34    18    21    1
    35    19    20    1
    36    19    38    1
    37    19    39    1
    38    20    40    1
    39    20    41    1
    40    20    42    1
    41    21    22    1
    42    21    43    1
    43    21    44    1
    44    22    45    1
    45    22    46    1
    46    22    47    1
    47    23    24   ar
    48    23    48    1
    49    24    49    1
