@<TRIPOS>MOLECULE
ZINC000071415933
 38 39 0 0 0
SMALL
GASTEIGER

@<TRIPOS>ATOM
      1 C           0.5218    1.4242    0.3536 C.3     1  UNL1       -0.0127
      2 N           0.4459   -0.0415    0.2900 N.3     1  UNL1       -0.3028
      3 C          -0.9337   -0.4874    0.0536 C.3     1  UNL1        0.0131
      4 C          -0.9437   -2.0009   -0.1861 C.3     1  UNL1        0.0333
      5 N          -0.2624   -2.6569    0.9402 N.3     1  UNL1       -0.1741
      6 S          -0.9777   -3.9099    1.7530 S.O2    1  UNL1        0.0615
      7 O          -0.3008   -4.0193    2.9976 O.2     1  UNL1       -0.1528
      8 O          -2.3803   -3.7088    1.6461 O.2     1  UNL1       -0.1528
      9 C          -0.6170   -5.3849    0.8592 C.ar    1  UNL1        0.1176
     10 C           0.3613   -5.3796   -0.1171 C.ar    1  UNL1       -0.0232
     11 C           0.6443   -6.5370   -0.8185 C.ar    1  UNL1        0.0567
     12 C           1.7106   -6.5310   -1.8833 C.3     1  UNL1        0.4175
     13 F           2.9446   -6.8555   -1.3095 F       1  UNL1       -0.1659
     14 F           1.3920   -7.4727   -2.8676 F       1  UNL1       -0.1659
     15 F           1.7852   -5.2592   -2.4615 F       1  UNL1       -0.1659
     16 C          -0.0504   -7.6995   -0.5426 C.ar    1  UNL1       -0.0495
     17 C          -1.0287   -7.7050    0.4343 C.ar    1  UNL1       -0.0477
     18 C          -1.3087   -6.5491    1.1384 C.ar    1  UNL1        0.0811
     19 C          -2.3750   -6.5550    2.2033 C.3     1  UNL1        0.4192
     20 F          -2.8379   -7.8616    2.3924 F       1  UNL1       -0.1658
     21 F          -1.8395   -6.0719    3.4021 F       1  UNL1       -0.1658
     22 F          -3.4374   -5.7370    1.8040 F       1  UNL1       -0.1658
     23 C           1.0713   -2.1708    1.3252 C.3     1  UNL1        0.0333
     24 C           1.0020   -0.6507    1.5055 C.3     1  UNL1        0.0131
     25 H           1.5633    1.7301    0.4528 H       1  UNL1        0.0391
     26 H           0.1035    1.8496   -0.5586 H       1  UNL1        0.0391
     27 H          -0.0450    1.7804    1.2138 H       1  UNL1        0.0391
     28 H          -1.5459   -0.2530    0.9245 H       1  UNL1        0.0439
     29 H          -1.3357    0.0223   -0.8220 H       1  UNL1        0.0439
     30 H          -1.9728   -2.3550   -0.2480 H       1  UNL1        0.0456
     31 H          -0.4189   -2.2281   -1.1141 H       1  UNL1        0.0456
     32 H           0.9044   -4.4712   -0.3324 H       1  UNL1        0.0643
     33 H           0.1707   -8.6036   -1.0905 H       1  UNL1        0.0623
     34 H          -1.5718   -8.6134    0.6496 H       1  UNL1        0.0624
     35 H           1.3745   -2.6373    2.2626 H       1  UNL1        0.0456
     36 H           1.7898   -2.4144    0.5426 H       1  UNL1        0.0456
     37 H           2.0038   -0.2594    1.6828 H       1  UNL1        0.0439
     38 H           0.3629   -0.4140    2.3561 H       1  UNL1        0.0439
@<TRIPOS>BOND
     1     1     2    1
     2     1    25    1
     3     1    26    1
     4     1    27    1
     5     2    24    1
     6     2     3    1
     7     3     4    1
     8     3    28    1
     9     3    29    1
    10     4     5    1
    11     4    30    1
    12     4    31    1
    13     6     5    1
    14     5    23    1
    15     6     7    2
    16     6     8    2
    17     6     9    1
    18     9    18   ar
    19     9    10   ar
    20    10    11   ar
    21    10    32    1
    22    11    12    1
    23    11    16   ar
    24    12    13    1
    25    12    14    1
    26    12    15    1
    27    16    17   ar
    28    16    33    1
    29    17    18   ar
    30    17    34    1
    31    18    19    1
    32    19    20    1
    33    19    21    1
    34    19    22    1
    35    23    24    1
    36    23    35    1
    37    23    36    1
    38    24    37    1
    39    24    38    1
