@<TRIPOS>MOLECULE
ZINC000012821192
 56 59 0 0 0
SMALL
GASTEIGER

@<TRIPOS>ATOM
      1 O           0.0021   -0.0041    0.0020 O.2     1  UNL1       -0.2737
      2 C          -0.0144    1.2086    0.0087 C.2     1  UNL1        0.2350
      3 N           1.1435    1.8983    0.0013 N.am    1  UNL1       -0.3109
      4 C           2.4220    1.1832   -0.0147 C.3     1  UNL1        0.0233
      5 C           3.5092    1.7007   -0.9587 C.3     1  UNL1       -0.0328
      6 C           3.6445    1.9087    0.5511 C.3     1  UNL1       -0.0328
      7 C          -1.3296    1.9443    0.0189 C.3     1  UNL1        0.1129
      8 H          -1.3916    2.5653    0.9126 H       1  UNL1        0.0609
      9 C          -1.4270    2.8162   -1.2064 C.ar    1  UNL1       -0.0214
     10 C          -1.7907    2.2641   -2.4204 C.ar    1  UNL1       -0.0566
     11 C          -1.8801    3.0639   -3.5443 C.ar    1  UNL1       -0.0614
     12 C          -1.6061    4.4158   -3.4542 C.ar    1  UNL1       -0.0617
     13 C          -1.2433    4.9681   -2.2400 C.ar    1  UNL1       -0.0614
     14 C          -1.1581    4.1691   -1.1151 C.ar    1  UNL1       -0.0566
     15 N          -2.4331    0.9746    0.0189 N.3     1  UNL1       -0.2854
     16 C          -3.7073    1.6272   -0.3103 C.3     1  UNL1        0.0144
     17 C          -4.7951    0.5610   -0.4779 C.3     1  UNL1        0.0333
     18 N          -4.8192   -0.2760    0.7313 N.3     1  UNL1       -0.1741
     19 S          -6.2360   -0.5603    1.5401 S.O2    1  UNL1        0.0609
     20 O          -5.8769   -0.8884    2.8753 O.2     1  UNL1       -0.1528
     21 O          -7.1081    0.5122    1.2110 O.2     1  UNL1       -0.1528
     22 C          -6.9504   -2.0135    0.8456 C.ar    1  UNL1        0.1055
     23 C          -7.8160   -1.9132   -0.2275 C.ar    1  UNL1       -0.0348
     24 C          -8.3765   -3.0532   -0.7724 C.ar    1  UNL1       -0.0483
     25 C          -8.0712   -4.2938   -0.2444 C.ar    1  UNL1        0.0549
     26 C          -8.6826   -5.5366   -0.8381 C.3     1  UNL1        0.4174
     27 F          -7.8537   -6.0247   -1.8539 F       1  UNL1       -0.1659
     28 F          -8.8220   -6.5092    0.1578 F       1  UNL1       -0.1659
     29 F          -9.9399   -5.2297   -1.3694 F       1  UNL1       -0.1659
     30 C          -7.2045   -4.3943    0.8278 C.ar    1  UNL1       -0.0483
     31 C          -6.6410   -3.2545    1.3703 C.ar    1  UNL1       -0.0348
     32 C          -3.5516   -0.8542    1.2027 C.3     1  UNL1        0.0333
     33 C          -2.5128    0.2678    1.3042 C.3     1  UNL1        0.0144
     34 H           1.1304    2.8682    0.0067 H       1  UNL1        0.1490
     35 H           2.3601    0.1059    0.1395 H       1  UNL1        0.0498
     36 H           4.1627    0.9640   -1.4258 H       1  UNL1        0.0284
     37 H           3.2732    2.5734   -1.5677 H       1  UNL1        0.0284
     38 H           3.4975    2.9181    0.9353 H       1  UNL1        0.0284
     39 H           4.3869    1.3087    1.0772 H       1  UNL1        0.0284
     40 H          -2.0047    1.2079   -2.4908 H       1  UNL1        0.0621
     41 H          -2.1636    2.6325   -4.4929 H       1  UNL1        0.0618
     42 H          -1.6752    5.0406   -4.3324 H       1  UNL1        0.0618
     43 H          -1.0289    6.0243   -2.1696 H       1  UNL1        0.0618
     44 H          -0.8746    4.6005   -0.1665 H       1  UNL1        0.0621
     45 H          -3.9859    2.3078    0.4942 H       1  UNL1        0.0440
     46 H          -3.6000    2.1866   -1.2396 H       1  UNL1        0.0440
     47 H          -5.7637    1.0435   -0.6086 H       1  UNL1        0.0456
     48 H          -4.5708   -0.0575   -1.3470 H       1  UNL1        0.0456
     49 H          -8.0546   -0.9440   -0.6400 H       1  UNL1        0.0637
     50 H          -9.0533   -2.9747   -1.6104 H       1  UNL1        0.0624
     51 H          -6.9657   -5.3635    1.2401 H       1  UNL1        0.0624
     52 H          -5.9639   -3.3330    2.2080 H       1  UNL1        0.0637
     53 H          -3.6981   -1.3073    2.1832 H       1  UNL1        0.0456
     54 H          -3.2078   -1.6087    0.4953 H       1  UNL1        0.0456
     55 H          -1.5392   -0.1587    1.5457 H       1  UNL1        0.0440
     56 H          -2.8081    0.9673    2.0862 H       1  UNL1        0.0440
@<TRIPOS>BOND
     1     1     2    2
     2     2     3   am
     3     2     7    1
     4     3     4    1
     5     3    34    1
     6     4     6    1
     7     4     5    1
     8     4    35    1
     9     5     6    1
    10     5    36    1
    11     5    37    1
    12     6    38    1
    13     6    39    1
    14     7     8    1
    15     7     9    1
    16     7    15    1
    17     9    14   ar
    18     9    10   ar
    19    10    11   ar
    20    10    40    1
    21    11    12   ar
    22    11    41    1
    23    12    13   ar
    24    12    42    1
    25    13    14   ar
    26    13    43    1
    27    14    44    1
    28    15    33    1
    29    15    16    1
    30    16    17    1
    31    16    45    1
    32    16    46    1
    33    17    18    1
    34    17    47    1
    35    17    48    1
    36    19    18    1
    37    18    32    1
    38    19    20    2
    39    19    21    2
    40    19    22    1
    41    22    31   ar
    42    22    23   ar
    43    23    24   ar
    44    23    49    1
    45    24    25   ar
    46    24    50    1
    47    25    26    1
    48    25    30   ar
    49    26    27    1
    50    26    28    1
    51    26    29    1
    52    30    31   ar
    53    30    51    1
    54    31    52    1
    55    32    33    1
    56    32    53    1
    57    32    54    1
    58    33    55    1
    59    33    56    1
