@<TRIPOS>MOLECULE
ZINC000028208088
 49 49 0 0 0
SMALL
GASTEIGER

@<TRIPOS>ATOM
      1 C          -0.0187    1.5258    0.0104 C.3     1  UNL1       -0.0636
      2 C           0.0021   -0.0041    0.0020 C.3     1  UNL1       -0.0376
      3 C           0.7421   -0.5109    1.2415 C.3     1  UNL1        0.0202
      4 H           1.7350   -0.0630    1.2804 H       1  UNL1        0.0495
      5 C           0.8719   -2.0337    1.1708 C.3     1  UNL1       -0.0466
      6 N          -0.0083   -0.1401    2.4439 N.am    1  UNL1       -0.3099
      7 C           0.6303   -0.0111    3.6237 C.2     1  UNL1        0.2509
      8 O           1.8262   -0.2020    3.6901 O.2     1  UNL1       -0.2721
      9 C          -0.1416    0.3704    4.8606 C.3     1  UNL1        0.1652
     10 O           0.7500    0.4430    5.9750 O.3     1  UNL1       -0.4813
     11 C           0.2099    0.7777    7.1766 C.ar    1  UNL1        0.1395
     12 C          -1.1504    1.0253    7.2818 C.ar    1  UNL1       -0.0166
     13 C          -1.6974    1.3650    8.5046 C.ar    1  UNL1       -0.0318
     14 C          -0.8899    1.4587    9.6227 C.ar    1  UNL1        0.1071
     15 S          -1.5911    1.8921   11.1800 S.O2    1  UNL1        0.0609
     16 O          -0.5346    2.4381   11.9578 O.2     1  UNL1       -0.1528
     17 O          -2.7922    2.5967   10.8971 O.2     1  UNL1       -0.1528
     18 N          -2.0400    0.4828   11.9247 N.3     1  UNL1       -0.1771
     19 C          -1.0926   -0.2211   12.7926 C.3     1  UNL1        0.0177
     20 C          -1.3270    0.1942   14.2463 C.3     1  UNL1       -0.0507
     21 C          -3.3846   -0.0601   11.7158 C.3     1  UNL1        0.0177
     22 C          -3.3474   -1.0948   10.5893 C.3     1  UNL1       -0.0507
     23 C           0.4671    1.2124    9.5213 C.ar    1  UNL1       -0.0134
     24 C           1.0184    0.8667    8.3020 C.ar    1  UNL1        0.0844
     25 CL          2.7219    0.5576    8.1748 Cl      1  UNL1       -0.0797
     26 H           1.0039    1.9031    0.0027 H       1  UNL1        0.0230
     27 H          -0.5459    1.8868   -0.8726 H       1  UNL1        0.0230
     28 H          -0.5289    1.8773    0.9072 H       1  UNL1        0.0230
     29 H          -1.0205   -0.3814    0.0098 H       1  UNL1        0.0280
     30 H           0.5123   -0.3556   -0.8948 H       1  UNL1        0.0280
     31 H          -0.1210   -2.4817    1.1320 H       1  UNL1        0.0247
     32 H           1.4302   -2.3096    0.2763 H       1  UNL1        0.0247
     33 H           1.3991   -2.3948    2.0539 H       1  UNL1        0.0247
     34 H          -0.9647    0.0126    2.3909 H       1  UNL1        0.1491
     35 H          -0.6138    1.3411    4.7092 H       1  UNL1        0.0795
     36 H          -0.9077   -0.3798    5.0565 H       1  UNL1        0.0795
     37 H          -1.7819    0.9531    6.4087 H       1  UNL1        0.0655
     38 H          -2.7568    1.5579    8.5867 H       1  UNL1        0.0638
     39 H          -1.2394   -1.2967   12.6938 H       1  UNL1        0.0441
     40 H          -0.0739    0.0348   12.5013 H       1  UNL1        0.0441
     41 H          -1.1802    1.2697   14.3451 H       1  UNL1        0.0243
     42 H          -2.3457   -0.0617   14.5376 H       1  UNL1        0.0243
     43 H          -0.6221   -0.3295   14.8920 H       1  UNL1        0.0243
     44 H          -3.7315   -0.5346   12.6337 H       1  UNL1        0.0441
     45 H          -4.0645    0.7477   11.4449 H       1  UNL1        0.0441
     46 H          -3.0005   -0.6202    9.6714 H       1  UNL1        0.0243
     47 H          -2.6675   -1.9025   10.8601 H       1  UNL1        0.0243
     48 H          -4.3478   -1.4987   10.4338 H       1  UNL1        0.0243
     49 H           1.0958    1.2863   10.3963 H       1  UNL1        0.0653
@<TRIPOS>BOND
     1     1     2    1
     2     1    26    1
     3     1    27    1
     4     1    28    1
     5     2     3    1
     6     2    29    1
     7     2    30    1
     8     3     4    1
     9     3     5    1
    10     3     6    1
    11     5    31    1
    12     5    32    1
    13     5    33    1
    14     6     7   am
    15     6    34    1
    16     7     8    2
    17     7     9    1
    18     9    10    1
    19     9    35    1
    20     9    36    1
    21    10    11    1
    22    11    24   ar
    23    11    12   ar
    24    12    13   ar
    25    12    37    1
    26    13    14   ar
    27    13    38    1
    28    14    15    1
    29    14    23   ar
    30    15    16    2
    31    15    17    2
    32    15    18    1
    33    18    19    1
    34    18    21    1
    35    19    20    1
    36    19    39    1
    37    19    40    1
    38    20    41    1
    39    20    42    1
    40    20    43    1
    41    21    22    1
    42    21    44    1
    43    21    45    1
    44    22    46    1
    45    22    47    1
    46    22    48    1
    47    23    24   ar
    48    23    49    1
    49    24    25    1
