@<TRIPOS>MOLECULE
ZINC000003024936
 53 55 0 0 0
SMALL
GASTEIGER

@<TRIPOS>ATOM
      1 C          -0.0391    1.5419   -0.0071 C.3     1  UNL1       -0.0612
      2 C          -0.0245    0.0120   -0.0237 C.3     1  UNL1       -0.0292
      3 H          -1.0484   -0.3617   -0.0155 H       1  UNL1        0.0311
      4 C           0.6881   -0.4783   -1.2863 C.3     1  UNL1       -0.0454
      5 C           2.1152    0.0735   -1.3155 C.3     1  UNL1       -0.0292
      6 H           2.0847    1.1628   -1.2914 H       1  UNL1        0.0311
      7 C           2.8157   -0.3896   -2.5944 C.3     1  UNL1       -0.0612
      8 C           2.8834   -0.4435   -0.0950 C.3     1  UNL1        0.0231
      9 N           2.1289   -0.1014    1.1184 N.3     1  UNL1       -0.1761
     10 S           2.8532    0.7246    2.3575 S.O2    1  UNL1        0.0609
     11 O           2.1096    0.4221    3.5300 O.2     1  UNL1       -0.1528
     12 O           4.2486    0.4840    2.2385 O.2     1  UNL1       -0.1528
     13 C           2.6163    2.4429    2.0476 C.ar    1  UNL1        0.1064
     14 C           3.5478    3.1440    1.3014 C.ar    1  UNL1       -0.0326
     15 C           3.3715    4.4925    1.0529 C.ar    1  UNL1       -0.0238
     16 C           2.2612    5.1502    1.5495 C.ar    1  UNL1        0.1356
     17 F           2.0891    6.4680    1.3067 F       1  UNL1       -0.2047
     18 C           1.3165    4.4464    2.3038 C.ar    1  UNL1        0.0740
     19 C           0.1277    5.1403    2.8384 C.2     1  UNL1        0.2511
     20 O          -0.0320    6.3262    2.6232 O.2     1  UNL1       -0.2698
     21 N          -0.7804    4.4589    3.5647 N.am    1  UNL1       -0.2814
     22 C          -1.8548    5.1342    4.1524 C.ar    1  UNL1        0.0337
     23 C          -2.3376    4.7299    5.3904 C.ar    1  UNL1       -0.0399
     24 C          -3.3985    5.3992    5.9682 C.ar    1  UNL1       -0.0484
     25 C          -3.9803    6.4705    5.3154 C.ar    1  UNL1        0.0549
     26 C          -5.1377    7.1985    5.9490 C.3     1  UNL1        0.4174
     27 F          -4.6532    8.2448    6.7413 F       1  UNL1       -0.1659
     28 F          -5.9667    7.7167    4.9482 F       1  UNL1       -0.1659
     29 F          -5.8678    6.3099    6.7455 F       1  UNL1       -0.1659
     30 C          -3.5020    6.8755    4.0828 C.ar    1  UNL1       -0.0484
     31 C          -2.4377    6.2141    3.5021 C.ar    1  UNL1       -0.0399
     32 C           1.5008    3.0834    2.5445 C.ar    1  UNL1       -0.0204
     33 C           0.7187   -0.5057    1.2117 C.3     1  UNL1        0.0231
     34 H           0.9850    1.9151   -0.0153 H       1  UNL1        0.0233
     35 H          -0.5670    1.9098   -0.8869 H       1  UNL1        0.0233
     36 H          -0.5457    1.8906    0.8928 H       1  UNL1        0.0233
     37 H           0.7199   -1.5678   -1.2853 H       1  UNL1        0.0271
     38 H           0.1467   -0.1318   -2.1666 H       1  UNL1        0.0271
     39 H           2.2671   -0.0235   -3.4622 H       1  UNL1        0.0233
     40 H           3.8321    0.0036   -2.6148 H       1  UNL1        0.0233
     41 H           2.8471   -1.4789   -2.6174 H       1  UNL1        0.0233
     42 H           2.9933   -1.5258   -0.1640 H       1  UNL1        0.0446
     43 H           3.8673    0.0241   -0.0575 H       1  UNL1        0.0446
     44 H           4.4169    2.6350    0.9115 H       1  UNL1        0.0638
     45 H           4.1025    5.0333    0.4702 H       1  UNL1        0.0647
     46 H          -0.6887    3.5001    3.6799 H       1  UNL1        0.1551
     47 H          -1.8842    3.8929    5.9004 H       1  UNL1        0.0636
     48 H          -3.7744    5.0854    6.9308 H       1  UNL1        0.0624
     49 H          -3.9585    7.7126    3.5755 H       1  UNL1        0.0624
     50 H          -2.0643    6.5312    2.5395 H       1  UNL1        0.0636
     51 H           0.7755    2.5338    3.1261 H       1  UNL1        0.0645
     52 H           0.2750   -0.0790    2.1113 H       1  UNL1        0.0446
     53 H           0.6520   -1.5930    1.2494 H       1  UNL1        0.0446
@<TRIPOS>BOND
     1     1     2    1
     2     1    34    1
     3     1    35    1
     4     1    36    1
     5     2     3    1
     6     2    33    1
     7     2     4    1
     8     4     5    1
     9     4    37    1
    10     4    38    1
    11     5     6    1
    12     5     7    1
    13     5     8    1
    14     7    39    1
    15     7    40    1
    16     7    41    1
    17     8     9    1
    18     8    42    1
    19     8    43    1
    20    10     9    1
    21     9    33    1
    22    10    11    2
    23    10    12    2
    24    10    13    1
    25    13    32   ar
    26    13    14   ar
    27    14    15   ar
    28    14    44    1
    29    15    16   ar
    30    15    45    1
    31    16    17    1
    32    16    18   ar
    33    18    19    1
    34    18    32   ar
    35    19    20    2
    36    19    21   am
    37    21    22    1
    38    21    46    1
    39    22    31   ar
    40    22    23   ar
    41    23    24   ar
    42    23    47    1
    43    24    25   ar
    44    24    48    1
    45    25    26    1
    46    25    30   ar
    47    26    27    1
    48    26    28    1
    49    26    29    1
    50    30    31   ar
    51    30    49    1
    52    31    50    1
    53    32    51    1
    54    33    52    1
    55    33    53    1
