@<TRIPOS>MOLECULE
ZINC000053891756
 43 45 0 0 0
SMALL
GASTEIGER

@<TRIPOS>ATOM
      1 N          -1.0908    2.3955   -0.3638 N.am    1  UNL1       -0.3291
      2 C          -1.4018    1.2855    0.3346 C.2     1  UNL1        0.2151
      3 O          -0.7043    0.9386    1.2641 O.2     1  UNL1       -0.2757
      4 C          -2.6164    0.4756   -0.0395 C.3     1  UNL1        0.0525
      5 H          -3.5212    1.0801    0.0241 H       1  UNL1        0.0410
      6 C          -2.7323   -0.7939    0.8450 C.3     1  UNL1       -0.0246
      7 C          -3.5170   -1.7716   -0.0549 C.3     1  UNL1        0.0157
      8 N          -3.3351   -1.3276   -1.4446 N.am    1  UNL1       -0.2968
      9 C          -3.8802   -1.9075   -2.5322 C.2     1  UNL1        0.2472
     10 O          -3.7307   -1.4042   -3.6288 O.2     1  UNL1       -0.2700
     11 C          -4.6587   -3.1540   -2.3921 C.ar    1  UNL1        0.0446
     12 C          -4.1233   -4.2422   -1.7033 C.ar    1  UNL1       -0.0490
     13 C          -4.8553   -5.4047   -1.5754 C.ar    1  UNL1       -0.0610
     14 C          -6.1215   -5.5001   -2.1279 C.ar    1  UNL1       -0.0611
     15 C          -6.6676   -4.4330   -2.8132 C.ar    1  UNL1       -0.0533
     16 C          -5.9474   -3.2498   -2.9475 C.ar    1  UNL1       -0.0058
     17 C          -6.5297   -2.1020   -3.6822 C.ar    1  UNL1       -0.0171
     18 C          -6.6481   -0.8600   -3.0597 C.ar    1  UNL1       -0.0535
     19 C          -7.1912    0.2051   -3.7489 C.ar    1  UNL1       -0.0495
     20 C          -7.6177    0.0423   -5.0548 C.ar    1  UNL1        0.0548
     21 C          -8.2099    1.2095   -5.8019 C.3     1  UNL1        0.4174
     22 F          -7.1924    1.9024   -6.4665 F       1  UNL1       -0.1659
     23 F          -9.1418    0.7417   -6.7345 F       1  UNL1       -0.1659
     24 F          -8.8451    2.0678   -4.8980 F       1  UNL1       -0.1659
     25 C          -7.5024   -1.1874   -5.6777 C.ar    1  UNL1       -0.0495
     26 C          -6.9561   -2.2585   -5.0005 C.ar    1  UNL1       -0.0535
     27 C          -2.4590   -0.1414   -1.4516 C.3     1  UNL1        0.0261
     28 H          -0.3090    2.9168   -0.1230 H       1  UNL1        0.1449
     29 H          -1.6464    2.6708   -1.1097 H       1  UNL1        0.1449
     30 H          -1.7451   -1.1925    1.0787 H       1  UNL1        0.0288
     31 H          -3.2884   -0.5787    1.7575 H       1  UNL1        0.0288
     32 H          -3.1257   -2.7818    0.0657 H       1  UNL1        0.0465
     33 H          -4.5750   -1.7481    0.2063 H       1  UNL1        0.0465
     34 H          -3.1361   -4.1750   -1.2705 H       1  UNL1        0.0625
     35 H          -4.4380   -6.2457   -1.0415 H       1  UNL1        0.0618
     36 H          -6.6853   -6.4151   -2.0223 H       1  UNL1        0.0618
     37 H          -7.6558   -4.5151   -3.2412 H       1  UNL1        0.0624
     38 H          -6.3158   -0.7318   -2.0401 H       1  UNL1        0.0624
     39 H          -7.2838    1.1675   -3.2677 H       1  UNL1        0.0623
     40 H          -7.8370   -1.3085   -6.6974 H       1  UNL1        0.0623
     41 H          -6.8662   -3.2180   -5.4879 H       1  UNL1        0.0624
     42 H          -2.7844    0.5661   -2.2143 H       1  UNL1        0.0472
     43 H          -1.4235   -0.4356   -1.6230 H       1  UNL1        0.0472
@<TRIPOS>BOND
     1     1     2   am
     2     1    28    1
     3     1    29    1
     4     2     3    2
     5     2     4    1
     6     4     5    1
     7     4    27    1
     8     4     6    1
     9     6     7    1
    10     6    30    1
    11     6    31    1
    12     7     8    1
    13     7    32    1
    14     7    33    1
    15     8     9   am
    16     8    27    1
    17     9    10    2
    18     9    11    1
    19    11    16   ar
    20    11    12   ar
    21    12    13   ar
    22    12    34    1
    23    13    14   ar
    24    13    35    1
    25    14    15   ar
    26    14    36    1
    27    15    16   ar
    28    15    37    1
    29    16    17    1
    30    17    26   ar
    31    17    18   ar
    32    18    19   ar
    33    18    38    1
    34    19    20   ar
    35    19    39    1
    36    20    21    1
    37    20    25   ar
    38    21    22    1
    39    21    23    1
    40    21    24    1
    41    25    26   ar
    42    25    40    1
    43    26    41    1
    44    27    42    1
    45    27    43    1
