@<TRIPOS>MOLECULE
ZINC000408627058
 47 48 0 0 0
SMALL
GASTEIGER

@<TRIPOS>ATOM
      1 C           0.0145    1.5850    0.0445 C.3     1  UNL1       -0.0507
      2 C           0.0406    0.0552    0.0472 C.3     1  UNL1        0.0177
      3 N           0.7255   -0.4236   -1.1561 N.3     1  UNL1       -0.1771
      4 C           2.1859   -0.5387   -1.1709 C.3     1  UNL1        0.0177
      5 C           2.5972   -1.8877   -0.5778 C.3     1  UNL1       -0.0507
      6 S          -0.1512   -0.8349   -2.4995 S.O2    1  UNL1        0.0608
      7 O           0.6545   -1.7388   -3.2431 O.2     1  UNL1       -0.1528
      8 O          -1.4586   -1.1538   -2.0433 O.2     1  UNL1       -0.1528
      9 C          -0.3084    0.6176   -3.4845 C.ar    1  UNL1        0.1057
     10 C          -1.3798    1.4699   -3.2913 C.ar    1  UNL1       -0.0319
     11 C          -1.5053    2.6093   -4.0622 C.ar    1  UNL1       -0.0181
     12 C          -0.5549    2.8983   -5.0307 C.ar    1  UNL1        0.1213
     13 O          -0.6759    4.0188   -5.7901 O.3     1  UNL1       -0.4828
     14 C           0.3397    4.2526   -6.7679 C.3     1  UNL1        0.1655
     15 C           0.0402    5.5311   -7.5073 C.2     1  UNL1        0.2549
     16 O          -0.9459    6.1783   -7.2248 O.2     1  UNL1       -0.2717
     17 N           0.8681    5.9553   -8.4825 N.am    1  UNL1       -0.2804
     18 C           0.5420    7.0921   -9.2327 C.ar    1  UNL1        0.0691
     19 C          -0.1236    8.1527   -8.6345 C.ar    1  UNL1       -0.0377
     20 C          -0.4437    9.2733   -9.3769 C.ar    1  UNL1       -0.0598
     21 C          -0.1025    9.3395  -10.7149 C.ar    1  UNL1       -0.0589
     22 C           0.5609    8.2851  -11.3158 C.ar    1  UNL1       -0.0246
     23 C           0.8895    7.1631  -10.5776 C.ar    1  UNL1        0.1445
     24 F           1.5379    6.1332  -11.1642 F       1  UNL1       -0.2035
     25 C           0.5194    2.0417   -5.2223 C.ar    1  UNL1       -0.0181
     26 C           0.6430    0.9061   -4.4455 C.ar    1  UNL1       -0.0319
     27 H           1.0357    1.9658    0.0318 H       1  UNL1        0.0243
     28 H          -0.5158    1.9378   -0.8401 H       1  UNL1        0.0243
     29 H          -0.4951    1.9413    0.9397 H       1  UNL1        0.0243
     30 H           0.5709   -0.2975    0.9318 H       1  UNL1        0.0441
     31 H          -0.9806   -0.3256    0.0598 H       1  UNL1        0.0441
     32 H           2.5455   -0.4683   -2.1975 H       1  UNL1        0.0441
     33 H           2.6198    0.2664   -0.5779 H       1  UNL1        0.0441
     34 H           2.1633   -2.6928   -1.1708 H       1  UNL1        0.0243
     35 H           3.6838   -1.9733   -0.5888 H       1  UNL1        0.0243
     36 H           2.2376   -1.9581    0.4488 H       1  UNL1        0.0243
     37 H          -2.1194    1.2445   -2.5372 H       1  UNL1        0.0638
     38 H          -2.3428    3.2743   -3.9114 H       1  UNL1        0.0655
     39 H           1.3074    4.3370   -6.2735 H       1  UNL1        0.0795
     40 H           0.3632    3.4219   -7.4732 H       1  UNL1        0.0795
     41 H           1.6899    5.4733   -8.6649 H       1  UNL1        0.1550
     42 H          -0.3915    8.1022   -7.5894 H       1  UNL1        0.0637
     43 H          -0.9617   10.0986   -8.9112 H       1  UNL1        0.0618
     44 H          -0.3548   10.2165  -11.2924 H       1  UNL1        0.0618
     45 H           0.8261    8.3399  -12.3613 H       1  UNL1        0.0647
     46 H           1.2604    2.2643   -5.9758 H       1  UNL1        0.0655
     47 H           1.4794    0.2391   -4.5940 H       1  UNL1        0.0638
@<TRIPOS>BOND
     1     1     2    1
     2     1    27    1
     3     1    28    1
     4     1    29    1
     5     2     3    1
     6     2    30    1
     7     2    31    1
     8     3     4    1
     9     6     3    1
    10     4     5    1
    11     4    32    1
    12     4    33    1
    13     5    34    1
    14     5    35    1
    15     5    36    1
    16     6     7    2
    17     6     8    2
    18     6     9    1
    19     9    26   ar
    20     9    10   ar
    21    10    11   ar
    22    10    37    1
    23    11    12   ar
    24    11    38    1
    25    12    13    1
    26    12    25   ar
    27    13    14    1
    28    14    15    1
    29    14    39    1
    30    14    40    1
    31    15    16    2
    32    15    17   am
    33    17    18    1
    34    17    41    1
    35    18    23   ar
    36    18    19   ar
    37    19    20   ar
    38    19    42    1
    39    20    21   ar
    40    20    43    1
    41    21    22   ar
    42    21    44    1
    43    22    23   ar
    44    22    45    1
    45    23    24    1
    46    25    26   ar
    47    25    46    1
    48    26    47    1
