@<TRIPOS>MOLECULE
ZINC000028427938
 60 62 0 0 0
SMALL
GASTEIGER

@<TRIPOS>ATOM
      1 C           0.3069    1.4908    0.1578 C.3     1  UNL1       -0.0517
      2 C          -0.0178    0.0047   -0.0061 C.3     1  UNL1        0.0388
      3 C           0.4261   -0.7554    1.2454 C.3     1  UNL1       -0.0517
      4 C          -1.5254   -0.1695   -0.2007 C.3     1  UNL1       -0.0517
      5 C           0.7100   -0.5389   -1.2085 C.2     1  UNL1        0.2216
      6 O           1.2690    0.2190   -1.9728 O.2     1  UNL1       -0.2750
      7 N           0.7398   -1.8672   -1.4346 N.am    1  UNL1       -0.2895
      8 C           0.0318   -2.8896   -0.6429 C.3     1  UNL1        0.0155
      9 C          -0.1380   -4.0903   -1.6068 C.3     1  UNL1       -0.0350
     10 C           1.1981   -4.0487   -2.3945 C.3     1  UNL1       -0.0243
     11 C           1.4787   -2.5361   -2.5154 C.3     1  UNL1        0.1024
     12 H           2.5459   -2.3467   -2.4005 H       1  UNL1        0.0597
     13 C           1.0107   -2.0337   -3.8569 C.2     1  UNL1        0.2362
     14 O           0.1453   -1.1862   -3.9189 O.2     1  UNL1       -0.2736
     15 N           1.5538   -2.5262   -4.9879 N.am    1  UNL1       -0.2974
     16 C           2.5989   -3.5578   -4.9281 C.3     1  UNL1        0.0292
     17 C           2.1493   -4.7600   -5.7676 C.3     1  UNL1        0.0363
     18 N           1.7067   -4.2754   -7.0826 N.3     1  UNL1       -0.1736
     19 S           2.3733   -4.8813   -8.4722 S.O2    1  UNL1        0.0609
     20 O           2.1822   -3.8914   -9.4736 O.2     1  UNL1       -0.1528
     21 O           3.6515   -5.3896   -8.1156 O.2     1  UNL1       -0.1528
     22 C           1.4022   -6.2704   -8.9539 C.ar    1  UNL1        0.1055
     23 C           1.7216   -7.5320   -8.4879 C.ar    1  UNL1       -0.0348
     24 C           0.9597   -8.6218   -8.8659 C.ar    1  UNL1       -0.0483
     25 C          -0.1218   -8.4498   -9.7094 C.ar    1  UNL1        0.0549
     26 C          -0.9521   -9.6379  -10.1219 C.3     1  UNL1        0.4174
     27 F          -1.9936   -9.8197   -9.2057 F       1  UNL1       -0.1659
     28 F          -1.4854   -9.4146  -11.3958 F       1  UNL1       -0.1659
     29 F          -0.1481  -10.7826  -10.1470 F       1  UNL1       -0.1659
     30 C          -0.4421   -7.1880  -10.1743 C.ar    1  UNL1       -0.0483
     31 C           0.3175   -6.0977   -9.7933 C.ar    1  UNL1       -0.0348
     32 C           0.6617   -3.2438   -7.1423 C.3     1  UNL1        0.0363
     33 C           1.1073   -2.0456   -6.3030 C.3     1  UNL1        0.0292
     34 H           1.3809    1.6149    0.2964 H       1  UNL1        0.0239
     35 H          -0.0093    2.0323   -0.7338 H       1  UNL1        0.0239
     36 H          -0.2196    1.8840    1.0275 H       1  UNL1        0.0239
     37 H          -0.1004   -0.3622    2.1151 H       1  UNL1        0.0239
     38 H           0.1947   -1.8141    1.1286 H       1  UNL1        0.0239
     39 H           1.5001   -0.6312    1.3840 H       1  UNL1        0.0239
     40 H          -1.8634    0.4731   -1.0136 H       1  UNL1        0.0239
     41 H          -1.7424   -1.2093   -0.4454 H       1  UNL1        0.0239
     42 H          -2.0443    0.1035    0.7181 H       1  UNL1        0.0239
     43 H           0.6278   -3.1792    0.2226 H       1  UNL1        0.0465
     44 H          -0.9423   -2.5168   -0.3261 H       1  UNL1        0.0465
     45 H          -0.2366   -5.0244   -1.0538 H       1  UNL1        0.0281
     46 H          -0.9884   -3.9403   -2.2719 H       1  UNL1        0.0281
     47 H           1.9903   -4.5482   -1.8368 H       1  UNL1        0.0288
     48 H           1.0783   -4.4965   -3.3810 H       1  UNL1        0.0288
     49 H           3.5302   -3.1587   -5.3301 H       1  UNL1        0.0478
     50 H           2.7473   -3.8687   -3.8940 H       1  UNL1        0.0478
     51 H           2.9832   -5.4504   -5.8939 H       1  UNL1        0.0459
     52 H           1.3239   -5.2670   -5.2678 H       1  UNL1        0.0459
     53 H           2.5665   -7.6663   -7.8289 H       1  UNL1        0.0637
     54 H           1.2097   -9.6076   -8.5024 H       1  UNL1        0.0624
     55 H          -1.2873   -7.0536  -10.8331 H       1  UNL1        0.0624
     56 H           0.0673   -5.1118  -10.1565 H       1  UNL1        0.0637
     57 H           0.5132   -2.9329   -8.1764 H       1  UNL1        0.0459
     58 H          -0.2696   -3.6429   -6.7404 H       1  UNL1        0.0459
     59 H           0.2725   -1.3561   -6.1775 H       1  UNL1        0.0478
     60 H           1.9332   -1.5373   -6.8006 H       1  UNL1        0.0478
@<TRIPOS>BOND
     1     1     2    1
     2     1    34    1
     3     1    35    1
     4     1    36    1
     5     2     3    1
     6     2     4    1
     7     2     5    1
     8     3    37    1
     9     3    38    1
    10     3    39    1
    11     4    40    1
    12     4    41    1
    13     4    42    1
    14     5     6    2
    15     5     7   am
    16     7    11    1
    17     7     8    1
    18     8     9    1
    19     8    43    1
    20     8    44    1
    21     9    10    1
    22     9    45    1
    23     9    46    1
    24    10    11    1
    25    10    47    1
    26    10    48    1
    27    11    12    1
    28    11    13    1
    29    13    14    2
    30    13    15   am
    31    15    33    1
    32    15    16    1
    33    16    17    1
    34    16    49    1
    35    16    50    1
    36    17    18    1
    37    17    51    1
    38    17    52    1
    39    19    18    1
    40    18    32    1
    41    19    20    2
    42    19    21    2
    43    19    22    1
    44    22    31   ar
    45    22    23   ar
    46    23    24   ar
    47    23    53    1
    48    24    25   ar
    49    24    54    1
    50    25    26    1
    51    25    30   ar
    52    26    27    1
    53    26    28    1
    54    26    29    1
    55    30    31   ar
    56    30    55    1
    57    31    56    1
    58    32    33    1
    59    32    57    1
    60    32    58    1
    61    33    59    1
    62    33    60    1
