@<TRIPOS>MOLECULE
ZINC000226070583
 54 55 0 0 0
SMALL
GASTEIGER

@<TRIPOS>ATOM
      1 C          -0.0089    1.5333    0.0225 C.3     1  UNL1       -0.0507
      2 C           0.0039    0.0034    0.0077 C.3     1  UNL1        0.0182
      3 N           0.7134   -0.4904    1.1905 N.3     1  UNL1       -0.1680
      4 C          -0.0006   -0.6486    2.4599 C.3     1  UNL1        0.0971
      5 C          -0.6844   -1.9913    2.4878 C.2     1  UNL1        0.2330
      6 O          -0.5852   -2.7421    1.5404 O.2     1  UNL1       -0.2740
      7 N          -1.4062   -2.3577    3.5653 N.am    1  UNL1       -0.2844
      8 C          -2.1202   -3.5610    3.5530 C.ar    1  UNL1        0.0334
      9 C          -3.3466   -3.6491    4.1984 C.ar    1  UNL1       -0.0402
     10 C          -4.0489   -4.8383    4.1843 C.ar    1  UNL1       -0.0564
     11 C          -3.5317   -5.9406    3.5290 C.ar    1  UNL1       -0.0385
     12 C          -4.3004   -7.2368    3.5161 C.3     1  UNL1        0.0489
     13 C          -5.2138   -7.2673    2.3178 C.2     1  UNL1        0.2148
     14 N          -6.0036   -8.3373    2.0995 N.am    1  UNL1       -0.3291
     15 O          -5.2381   -6.3289    1.5499 O.2     1  UNL1       -0.2757
     16 C          -2.3109   -5.8561    2.8850 C.ar    1  UNL1       -0.0564
     17 C          -1.6064   -4.6681    2.8904 C.ar    1  UNL1       -0.0402
     18 S           2.3223   -0.8699    1.0925 S.O2    1  UNL1        0.0613
     19 O           2.5812   -1.7941    2.1404 O.2     1  UNL1       -0.1528
     20 O           2.5855   -1.1518   -0.2752 O.2     1  UNL1       -0.1528
     21 C           3.2273    0.5908    1.4825 C.ar    1  UNL1        0.1060
     22 C           3.5789    1.4735    0.4784 C.ar    1  UNL1       -0.0319
     23 C           4.2882    2.6197    0.7817 C.ar    1  UNL1       -0.0178
     24 C           4.6475    2.8845    2.0950 C.ar    1  UNL1        0.1231
     25 O           5.3447    4.0115    2.3960 O.3     1  UNL1       -0.4948
     26 C           5.6746    4.8797    1.3100 C.3     1  UNL1        0.0788
     27 C           4.2934    1.9969    3.1011 C.ar    1  UNL1       -0.0070
     28 C           4.6817    2.2817    4.5291 C.3     1  UNL1       -0.0362
     29 C           3.5798    0.8550    2.7934 C.ar    1  UNL1       -0.0290
     30 H           1.0156    1.9054    0.0133 H       1  UNL1        0.0243
     31 H          -0.5368    1.9008   -0.8575 H       1  UNL1        0.0243
     32 H          -0.5147    1.8837    0.9222 H       1  UNL1        0.0243
     33 H          -1.0206   -0.3686    0.0169 H       1  UNL1        0.0441
     34 H           0.5097   -0.3470   -0.8920 H       1  UNL1        0.0441
     35 H           0.7080   -0.5846    3.2857 H       1  UNL1        0.0539
     36 H          -0.7457    0.1407    2.5585 H       1  UNL1        0.0539
     37 H          -1.4308   -1.7872    4.3495 H       1  UNL1        0.1548
     38 H          -3.7507   -2.7887    4.7110 H       1  UNL1        0.0636
     39 H          -5.0027   -4.9074    4.6861 H       1  UNL1        0.0621
     40 H          -3.6027   -8.0725    3.4625 H       1  UNL1        0.0407
     41 H          -4.8935   -7.3165    4.4271 H       1  UNL1        0.0407
     42 H          -5.9841   -9.0878    2.7137 H       1  UNL1        0.1449
     43 H          -6.5915   -8.3569    1.3283 H       1  UNL1        0.1449
     44 H          -1.9097   -6.7188    2.3740 H       1  UNL1        0.0621
     45 H          -0.6530   -4.6027    2.3873 H       1  UNL1        0.0636
     46 H           3.2992    1.2667   -0.5441 H       1  UNL1        0.0638
     47 H           4.5629    3.3089   -0.0032 H       1  UNL1        0.0655
     48 H           6.2293    5.7388    1.6872 H       1  UNL1        0.0660
     49 H           6.2869    4.3408    0.5870 H       1  UNL1        0.0660
     50 H           4.7590    5.2218    0.8273 H       1  UNL1        0.0660
     51 H           3.8932    2.8591    5.0117 H       1  UNL1        0.0279
     52 H           4.8215    1.3412    5.0620 H       1  UNL1        0.0279
     53 H           5.6112    2.8507    4.5463 H       1  UNL1        0.0279
     54 H           3.3036    0.1641    3.5761 H       1  UNL1        0.0641
@<TRIPOS>BOND
     1     1     2    1
     2     1    30    1
     3     1    31    1
     4     1    32    1
     5     2     3    1
     6     2    33    1
     7     2    34    1
     8     3     4    1
     9    18     3    1
    10     4     5    1
    11     4    35    1
    12     4    36    1
    13     5     6    2
    14     5     7   am
    15     7     8    1
    16     7    37    1
    17     8    17   ar
    18     8     9   ar
    19     9    10   ar
    20     9    38    1
    21    10    11   ar
    22    10    39    1
    23    11    12    1
    24    11    16   ar
    25    12    13    1
    26    12    40    1
    27    12    41    1
    28    13    14   am
    29    13    15    2
    30    14    42    1
    31    14    43    1
    32    16    17   ar
    33    16    44    1
    34    17    45    1
    35    18    19    2
    36    18    20    2
    37    18    21    1
    38    21    29   ar
    39    21    22   ar
    40    22    23   ar
    41    22    46    1
    42    23    24   ar
    43    23    47    1
    44    24    25    1
    45    24    27   ar
    46    25    26    1
    47    26    48    1
    48    26    49    1
    49    26    50    1
    50    27    28    1
    51    27    29   ar
    52    28    51    1
    53    28    52    1
    54    28    53    1
    55    29    54    1
