@<TRIPOS>MOLECULE
ZINC000002878041
 46 47 0 0 0
SMALL
GASTEIGER

@<TRIPOS>ATOM
      1 C          -0.0187    1.5258    0.0104 C.3     1  UNL1       -0.0507
      2 C           0.0021   -0.0041    0.0020 C.3     1  UNL1        0.0182
      3 N           0.7106   -0.4894    1.1889 N.3     1  UNL1       -0.1681
      4 C          -0.0062   -0.6460    2.4569 C.3     1  UNL1        0.0968
      5 C          -0.6831   -1.9920    2.4883 C.2     1  UNL1        0.2288
      6 O          -0.5773   -2.7462    1.5445 O.2     1  UNL1       -0.2743
      7 N          -1.4062   -2.3577    3.5653 N.am    1  UNL1       -0.3139
      8 C          -2.0643   -3.6662    3.5959 C.3     1  UNL1        0.0156
      9 C          -2.8129   -3.8298    4.9202 C.3     1  UNL1       -0.0121
     10 C          -3.4899   -5.1758    4.9516 C.ar    1  UNL1       -0.0459
     11 C          -4.7771   -5.3135    4.4669 C.ar    1  UNL1       -0.0585
     12 C          -5.3981   -6.5482    4.4957 C.ar    1  UNL1       -0.0615
     13 C          -4.7317   -7.6452    5.0088 C.ar    1  UNL1       -0.0617
     14 C          -3.4441   -7.5077    5.4927 C.ar    1  UNL1       -0.0615
     15 C          -2.8216   -6.2739    5.4599 C.ar    1  UNL1       -0.0585
     16 S           2.3218   -0.8609    1.0971 S.O2    1  UNL1        0.0613
     17 O           2.5823   -1.7795    2.1496 O.2     1  UNL1       -0.1528
     18 O           2.5905   -1.1471   -0.2686 O.2     1  UNL1       -0.1528
     19 C           3.2182    0.6060    1.4837 C.ar    1  UNL1        0.1055
     20 C           3.5687    1.4871    0.4779 C.ar    1  UNL1       -0.0353
     21 C           4.2720    2.6379    0.7812 C.ar    1  UNL1       -0.0599
     22 C           4.6242    2.9079    2.0903 C.ar    1  UNL1       -0.0616
     23 C           4.2728    2.0272    3.0963 C.ar    1  UNL1       -0.0599
     24 C           3.5659    0.8785    2.7936 C.ar    1  UNL1       -0.0353
     25 H           1.0039    1.9031    0.0027 H       1  UNL1        0.0243
     26 H          -0.5459    1.8868   -0.8726 H       1  UNL1        0.0243
     27 H          -0.5289    1.8773    0.9072 H       1  UNL1        0.0243
     28 H          -1.0205   -0.3814    0.0098 H       1  UNL1        0.0441
     29 H           0.5123   -0.3556   -0.8948 H       1  UNL1        0.0441
     30 H           0.6997   -0.5749    3.2845 H       1  UNL1        0.0539
     31 H          -0.7557    0.1399    2.5501 H       1  UNL1        0.0539
     32 H          -1.4909   -1.7545    4.3202 H       1  UNL1        0.1487
     33 H          -2.7702   -3.7373    2.7683 H       1  UNL1        0.0465
     34 H          -1.3148   -4.4521    3.5027 H       1  UNL1        0.0465
     35 H          -2.1071   -3.7586    5.7477 H       1  UNL1        0.0328
     36 H          -3.5624   -3.0438    5.0134 H       1  UNL1        0.0328
     37 H          -5.2978   -4.4564    4.0660 H       1  UNL1        0.0620
     38 H          -6.4041   -6.6556    4.1177 H       1  UNL1        0.0618
     39 H          -5.2171   -8.6097    5.0320 H       1  UNL1        0.0618
     40 H          -2.9236   -8.3647    5.8939 H       1  UNL1        0.0618
     41 H          -1.8156   -6.1664    5.8380 H       1  UNL1        0.0620
     42 H           3.2935    1.2761   -0.5449 H       1  UNL1        0.0637
     43 H           4.5465    3.3259   -0.0048 H       1  UNL1        0.0618
     44 H           5.1742    3.8066    2.3272 H       1  UNL1        0.0618
     45 H           4.5483    2.2380    4.1191 H       1  UNL1        0.0618
     46 H           3.2914    0.1905    3.5795 H       1  UNL1        0.0637
@<TRIPOS>BOND
     1     1     2    1
     2     1    25    1
     3     1    26    1
     4     1    27    1
     5     2     3    1
     6     2    28    1
     7     2    29    1
     8     3     4    1
     9    16     3    1
    10     4     5    1
    11     4    30    1
    12     4    31    1
    13     5     6    2
    14     5     7   am
    15     7     8    1
    16     7    32    1
    17     8     9    1
    18     8    33    1
    19     8    34    1
    20     9    10    1
    21     9    35    1
    22     9    36    1
    23    10    15   ar
    24    10    11   ar
    25    11    12   ar
    26    11    37    1
    27    12    13   ar
    28    12    38    1
    29    13    14   ar
    30    13    39    1
    31    14    15   ar
    32    14    40    1
    33    15    41    1
    34    16    17    2
    35    16    18    2
    36    16    19    1
    37    19    24   ar
    38    19    20   ar
    39    20    21   ar
    40    20    42    1
    41    21    22   ar
    42    21    43    1
    43    22    23   ar
    44    22    44    1
    45    23    24   ar
    46    23    45    1
    47    24    46    1
