@<TRIPOS>MOLECULE
ZINC000015443709
 23 23 0 0 0
SMALL
GASTEIGER

@<TRIPOS>ATOM
      1 C          -0.0225    1.8097    0.0120 C.3     1  UNL1        0.0596
      2 S           0.0021   -0.0041    0.0020 S.O2    1  UNL1       -0.0051
      3 O           0.8448   -0.4970    1.0346 O.2     1  UNL1       -0.1696
      4 O          -1.3093   -0.5195   -0.1821 O.2     1  UNL1       -0.1696
      5 C           0.8469   -0.4241   -1.4861 C.ar    1  UNL1        0.1020
      6 C           2.0620   -1.0739   -1.4312 C.ar    1  UNL1       -0.0356
      7 C           2.7268   -1.4051   -2.5991 C.ar    1  UNL1       -0.0483
      8 C           2.1788   -1.0870   -3.8291 C.ar    1  UNL1        0.0557
      9 C           2.9107   -1.4514   -5.0950 C.3     1  UNL1        0.4174
     10 F           4.1086   -2.0976   -4.7715 F       1  UNL1       -0.1659
     11 F           2.1136   -2.3050   -5.8652 F       1  UNL1       -0.1659
     12 F           3.1893   -0.2899   -5.8234 F       1  UNL1       -0.1659
     13 C           0.9639   -0.4375   -3.8993 C.ar    1  UNL1       -0.0341
     14 C           0.2846   -0.1048   -2.7248 C.ar    1  UNL1        0.0884
     15 C          -1.0155    0.5894   -2.7918 C.2     1  UNL1        0.3884
     16 O          -1.5010    0.8751   -3.8772 O.co2   1  UNL1       -0.2405
     17 O          -1.6077    0.8793   -1.7618 O.co2   1  UNL1       -0.2405
     18 H           1.0001    2.1870    0.0043 H       1  UNL1        0.0468
     19 H          -0.5497    2.1708   -0.8711 H       1  UNL1        0.0468
     20 H          -0.5327    2.1613    0.9088 H       1  UNL1        0.0468
     21 H           2.4961   -1.3247   -0.4746 H       1  UNL1        0.0637
     22 H           3.6782   -1.9139   -2.5501 H       1  UNL1        0.0624
     23 H           0.5371   -0.1901   -4.8601 H       1  UNL1        0.0632
@<TRIPOS>BOND
     1     1     2    1
     2     1    18    1
     3     1    19    1
     4     1    20    1
     5     2     3    2
     6     2     4    2
     7     2     5    1
     8     5    14   ar
     9     5     6   ar
    10     6     7   ar
    11     6    21    1
    12     7     8   ar
    13     7    22    1
    14     8     9    1
    15     8    13   ar
    16     9    10    1
    17     9    11    1
    18     9    12    1
    19    13    14   ar
    20    13    23    1
    21    14    15    1
    22    15    16   ar
    23    15    17   ar
