@<TRIPOS>MOLECULE
ZINC000408619483
 50 51 0 0 0
SMALL
GASTEIGER

@<TRIPOS>ATOM
      1 C          -0.0173    1.4248    0.0099 C.3     1  UNL1        0.0365
      2 O           0.0021   -0.0041    0.0020 O.3     1  UNL1       -0.3812
      3 C           0.6518   -0.5703   -1.1379 C.3     1  UNL1        0.0654
      4 C           0.6131   -2.0967   -1.0411 C.3     1  UNL1        0.0437
      5 H           1.1847   -2.5275   -1.8631 H       1  UNL1        0.0518
      6 C           1.2226   -2.5389    0.2908 C.3     1  UNL1       -0.0445
      7 N          -0.7759   -2.5559   -1.1188 N.am    1  UNL1       -0.3094
      8 C          -1.0505   -3.8014   -1.5545 C.2     1  UNL1        0.2291
      9 O          -0.1478   -4.5420   -1.8822 O.2     1  UNL1       -0.2743
     10 C          -2.4794   -4.2737   -1.6345 C.3     1  UNL1        0.0971
     11 N          -2.5113   -5.6507   -2.1337 N.3     1  UNL1       -0.1635
     12 C          -2.3406   -6.7707   -1.2049 C.3     1  UNL1        0.0460
     13 C          -3.6703   -7.1173   -0.5862 C.ar    1  UNL1       -0.0317
     14 C          -4.0693   -6.5010    0.5851 C.ar    1  UNL1       -0.0573
     15 C          -5.2890   -6.8190    1.1527 C.ar    1  UNL1       -0.0615
     16 C          -6.1100   -7.7528    0.5487 C.ar    1  UNL1       -0.0617
     17 C          -5.7114   -8.3684   -0.6231 C.ar    1  UNL1       -0.0615
     18 C          -4.4936   -8.0473   -1.1930 C.ar    1  UNL1       -0.0573
     19 S          -2.7403   -5.9412   -3.7479 S.O2    1  UNL1        0.0616
     20 O          -3.2658   -7.2576   -3.8481 O.2     1  UNL1       -0.1528
     21 O          -3.4025   -4.7980   -4.2713 O.2     1  UNL1       -0.1528
     22 C          -1.1481   -5.9823   -4.5014 C.ar    1  UNL1        0.1056
     23 C          -0.5867   -4.8193   -4.9945 C.ar    1  UNL1       -0.0343
     24 C           0.6625   -4.8510   -5.5853 C.ar    1  UNL1       -0.0459
     25 C           1.3509   -6.0468   -5.6831 C.ar    1  UNL1        0.0180
     26 BR          3.0602   -6.0908   -6.4907 Br      1  UNL1       -0.0503
     27 C           0.7888   -7.2103   -5.1895 C.ar    1  UNL1       -0.0459
     28 C          -0.4582   -7.1767   -4.5942 C.ar    1  UNL1       -0.0343
     29 H           1.0053    1.8021    0.0021 H       1  UNL1        0.0523
     30 H          -0.5445    1.7859   -0.8732 H       1  UNL1        0.0523
     31 H          -0.5275    1.7763    0.9067 H       1  UNL1        0.0523
     32 H           0.1385   -0.2506   -2.0447 H       1  UNL1        0.0578
     33 H           1.6883   -0.2344   -1.1694 H       1  UNL1        0.0578
     34 H           1.1950   -3.6264    0.3598 H       1  UNL1        0.0248
     35 H           2.2560   -2.1973    0.3487 H       1  UNL1        0.0248
     36 H           0.6509   -2.1081    1.1128 H       1  UNL1        0.0248
     37 H          -1.4979   -1.9635   -0.8568 H       1  UNL1        0.1491
     38 H          -2.9305   -4.2361   -0.6430 H       1  UNL1        0.0539
     39 H          -3.0379   -3.6284   -2.3125 H       1  UNL1        0.0539
     40 H          -1.9549   -7.6352   -1.7451 H       1  UNL1        0.0493
     41 H          -1.6376   -6.4888   -0.4210 H       1  UNL1        0.0493
     42 H          -3.4279   -5.7714    1.0570 H       1  UNL1        0.0621
     43 H          -5.6004   -6.3380    2.0682 H       1  UNL1        0.0618
     44 H          -7.0626   -8.0017    0.9924 H       1  UNL1        0.0618
     45 H          -6.3526   -9.0982   -1.0949 H       1  UNL1        0.0618
     46 H          -4.1822   -8.5282   -2.1085 H       1  UNL1        0.0621
     47 H          -1.1244   -3.8857   -4.9184 H       1  UNL1        0.0637
     48 H           1.1008   -3.9424   -5.9708 H       1  UNL1        0.0629
     49 H           1.3259   -8.1442   -5.2656 H       1  UNL1        0.0629
     50 H          -0.8971   -8.0851   -4.2088 H       1  UNL1        0.0637
@<TRIPOS>BOND
     1     1     2    1
     2     1    29    1
     3     1    30    1
     4     1    31    1
     5     2     3    1
     6     3     4    1
     7     3    32    1
     8     3    33    1
     9     4     5    1
    10     4     6    1
    11     4     7    1
    12     6    34    1
    13     6    35    1
    14     6    36    1
    15     7     8   am
    16     7    37    1
    17     8     9    2
    18     8    10    1
    19    10    11    1
    20    10    38    1
    21    10    39    1
    22    11    12    1
    23    19    11    1
    24    12    13    1
    25    12    40    1
    26    12    41    1
    27    13    18   ar
    28    13    14   ar
    29    14    15   ar
    30    14    42    1
    31    15    16   ar
    32    15    43    1
    33    16    17   ar
    34    16    44    1
    35    17    18   ar
    36    17    45    1
    37    18    46    1
    38    19    20    2
    39    19    21    2
    40    19    22    1
    41    22    28   ar
    42    22    23   ar
    43    23    24   ar
    44    23    47    1
    45    24    25   ar
    46    24    48    1
    47    25    26    1
    48    25    27   ar
    49    27    28   ar
    50    27    49    1
    51    28    50    1
