@<TRIPOS>MOLECULE
ZINC000009314506
 66 69 0 0 0
SMALL
GASTEIGER

@<TRIPOS>ATOM
      1 C          -0.0187    1.5258    0.0104 C.3     1  UNL1       -0.0507
      2 C           0.0021   -0.0041    0.0020 C.3     1  UNL1        0.0177
      3 N           0.7106   -0.4894    1.1889 N.3     1  UNL1       -0.1771
      4 C          -0.0062   -0.6460    2.4569 C.3     1  UNL1        0.0177
      5 C          -0.6935   -2.0126    2.4888 C.3     1  UNL1       -0.0507
      6 S           2.3218   -0.8609    1.0971 S.O2    1  UNL1        0.0609
      7 O           2.5823   -1.7795    2.1496 O.2     1  UNL1       -0.1528
      8 O           2.5905   -1.1471   -0.2686 O.2     1  UNL1       -0.1528
      9 C           3.2182    0.6060    1.4837 C.ar    1  UNL1        0.1074
     10 C           3.5678    1.4858    0.4768 C.ar    1  UNL1       -0.0318
     11 C           4.2710    2.6392    0.7742 C.ar    1  UNL1       -0.0163
     12 C           4.6269    2.9153    2.0835 C.ar    1  UNL1        0.1409
     13 O           5.3180    4.0493    2.3775 O.3     1  UNL1       -0.4933
     14 C           5.6443    4.9116    1.2857 C.3     1  UNL1        0.0789
     15 C           4.2748    2.0288    3.0995 C.ar    1  UNL1        0.0716
     16 N           4.6314    2.3030    4.4248 N.pl3   1  UNL1       -0.3325
     17 C           4.2602    1.3696    5.4913 C.3     1  UNL1        0.0859
     18 C           4.7587    1.8936    6.8134 C.2     1  UNL1        0.2305
     19 O           5.3644    2.9433    6.8602 O.2     1  UNL1       -0.2741
     20 N           4.5315    1.1957    7.9438 N.am    1  UNL1       -0.3085
     21 C           5.0162    1.7051    9.2291 C.3     1  UNL1        0.0354
     22 C           4.3871    3.0720    9.5058 C.3     1  UNL1       -0.0287
     23 C           4.8932    3.6040   10.8481 C.3     1  UNL1       -0.0386
     24 C           6.4161    3.7438   10.7998 C.3     1  UNL1       -0.0472
     25 C           7.0451    2.3768   10.5231 C.3     1  UNL1       -0.0386
     26 C           6.6575    1.4021   11.6368 C.3     1  UNL1       -0.0472
     27 C           5.1347    1.2623   11.6851 C.3     1  UNL1       -0.0386
     28 C           4.5056    2.6293   11.9619 C.3     1  UNL1       -0.0472
     29 C           4.6285    0.7303   10.3428 C.3     1  UNL1       -0.0287
     30 C           6.5390    1.8448    9.1808 C.3     1  UNL1       -0.0287
     31 C           3.5651    0.8769    2.7944 C.ar    1  UNL1       -0.0109
     32 H           1.0039    1.9031    0.0027 H       1  UNL1        0.0243
     33 H          -0.5459    1.8868   -0.8726 H       1  UNL1        0.0243
     34 H          -0.5289    1.8773    0.9072 H       1  UNL1        0.0243
     35 H          -1.0205   -0.3814    0.0098 H       1  UNL1        0.0441
     36 H           0.5123   -0.3556   -0.8948 H       1  UNL1        0.0441
     37 H           0.6997   -0.5749    3.2845 H       1  UNL1        0.0441
     38 H          -0.7557    0.1399    2.5501 H       1  UNL1        0.0441
     39 H          -1.2268   -2.1291    3.4323 H       1  UNL1        0.0243
     40 H          -1.3993   -2.0837    1.6613 H       1  UNL1        0.0243
     41 H           0.0560   -2.7985    2.3957 H       1  UNL1        0.0243
     42 H           3.2914    1.2720   -0.5452 H       1  UNL1        0.0638
     43 H           4.5430    3.3244   -0.0151 H       1  UNL1        0.0655
     44 H           6.2605    4.3709    0.5673 H       1  UNL1        0.0660
     45 H           4.7274    5.2451    0.7996 H       1  UNL1        0.0660
     46 H           6.1937    5.7764    1.6574 H       1  UNL1        0.0660
     47 H           5.1242    3.1110    4.6372 H       1  UNL1        0.1467
     48 H           3.1753    1.2700    5.5257 H       1  UNL1        0.0557
     49 H           4.7084    0.3958    5.2941 H       1  UNL1        0.0557
     50 H           4.0471    0.3562    7.9064 H       1  UNL1        0.1493
     51 H           4.6632    3.7664    8.7124 H       1  UNL1        0.0288
     52 H           3.3022    2.9725    9.5402 H       1  UNL1        0.0288
     53 H           4.4450    4.5778   11.0453 H       1  UNL1        0.0302
     54 H           6.6922    4.4382   10.0064 H       1  UNL1        0.0271
     55 H           6.7766    4.1227   11.7561 H       1  UNL1        0.0271
     56 H           8.1300    2.4764   10.4887 H       1  UNL1        0.0302
     57 H           7.1057    0.4282   11.4397 H       1  UNL1        0.0271
     58 H           7.0181    1.7811   12.5931 H       1  UNL1        0.0271
     59 H           4.8585    0.5679   12.4786 H       1  UNL1        0.0302
     60 H           4.8662    3.0082   12.9182 H       1  UNL1        0.0271
     61 H           3.4207    2.5297   11.9963 H       1  UNL1        0.0271
     62 H           3.5436    0.6308   10.3773 H       1  UNL1        0.0288
     63 H           5.0767   -0.2435   10.1457 H       1  UNL1        0.0288
     64 H           6.9872    0.8710    8.9836 H       1  UNL1        0.0288
     65 H           6.8151    2.5393    8.3873 H       1  UNL1        0.0288
     66 H           3.2903    0.1880    3.5794 H       1  UNL1        0.0657
@<TRIPOS>BOND
     1     1     2    1
     2     1    32    1
     3     1    33    1
     4     1    34    1
     5     2     3    1
     6     2    35    1
     7     2    36    1
     8     3     4    1
     9     6     3    1
    10     4     5    1
    11     4    37    1
    12     4    38    1
    13     5    39    1
    14     5    40    1
    15     5    41    1
    16     6     7    2
    17     6     8    2
    18     6     9    1
    19     9    31   ar
    20     9    10   ar
    21    10    11   ar
    22    10    42    1
    23    11    12   ar
    24    11    43    1
    25    12    13    1
    26    12    15   ar
    27    13    14    1
    28    14    44    1
    29    14    45    1
    30    14    46    1
    31    15    16    1
    32    15    31   ar
    33    16    17    1
    34    16    47    1
    35    17    18    1
    36    17    48    1
    37    17    49    1
    38    18    19    2
    39    18    20   am
    40    20    50    1
    41    21    20    1
    42    21    29    1
    43    21    30    1
    44    21    22    1
    45    22    23    1
    46    22    51    1
    47    22    52    1
    48    23    28    1
    49    23    24    1
    50    23    53    1
    51    24    25    1
    52    24    54    1
    53    24    55    1
    54    25    26    1
    55    25    30    1
    56    25    56    1
    57    26    27    1
    58    26    57    1
    59    26    58    1
    60    27    28    1
    61    27    29    1
    62    27    59    1
    63    28    60    1
    64    28    61    1
    65    29    62    1
    66    29    63    1
    67    30    64    1
    68    30    65    1
    69    31    66    1
