@<TRIPOS>MOLECULE
ZINC000028049967
 44 46 0 0 0
SMALL
GASTEIGER

@<TRIPOS>ATOM
      1 O          -0.0139   -0.1234    0.0468 O.2     1  UNL1       -0.2740
      2 C           0.0417    1.0876    0.0082 C.2     1  UNL1        0.2323
      3 N           1.2386    1.7071   -0.0035 N.am    1  UNL1       -0.3069
      4 C           2.4723    0.9178    0.0303 C.3     1  UNL1        0.0698
      5 C           3.6615    1.8432    0.0087 C.ar    1  UNL1        0.1218
      6 C           4.2781    2.3571    1.0882 C.ar    1  UNL1       -0.0192
      7 C           5.3350    3.1654    0.6101 C.ar    1  UNL1       -0.0236
      8 C           5.3011    3.0971   -0.7329 C.ar    1  UNL1        0.0921
      9 O           4.2890    2.2902   -1.0913 O.2     1  UNL1       -0.4662
     10 C          -1.2273    1.8993   -0.0328 C.3     1  UNL1        0.1078
     11 H          -1.2469    2.5110   -0.9348 H       1  UNL1        0.0575
     12 C          -1.3134    2.8022    1.2157 C.3     1  UNL1       -0.0260
     13 C          -2.8213    2.7518    1.5778 C.3     1  UNL1       -0.0366
     14 C          -3.1815    1.2915    1.2069 C.3     1  UNL1        0.0214
     15 N          -2.3939    1.0048   -0.0099 N.3     1  UNL1       -0.1647
     16 S          -2.7641   -0.1348   -1.1529 S.O2    1  UNL1        0.0629
     17 O          -1.5861   -0.3271   -1.9240 O.2     1  UNL1       -0.1528
     18 O          -3.4257   -1.1897   -0.4682 O.2     1  UNL1       -0.1528
     19 C          -3.9562    0.5803   -2.2355 C.ar    1  UNL1        0.1242
     20 C          -5.2497    0.0943   -2.2571 C.ar    1  UNL1       -0.0223
     21 C          -6.1852    0.6554   -3.1066 C.ar    1  UNL1        0.0567
     22 C          -7.5956    0.1249   -3.1296 C.3     1  UNL1        0.4175
     23 F          -8.3708    0.8207   -2.1957 F       1  UNL1       -0.1659
     24 F          -8.1381    0.2980   -4.4074 F       1  UNL1       -0.1659
     25 F          -7.5871   -1.2364   -2.8070 F       1  UNL1       -0.1659
     26 C          -5.8275    1.7029   -3.9344 C.ar    1  UNL1       -0.0486
     27 C          -4.5340    2.1899   -3.9137 C.ar    1  UNL1       -0.0410
     28 C          -3.5989    1.6324   -3.0602 C.ar    1  UNL1        0.0673
     29 CL         -1.9742    2.2435   -3.0337 Cl      1  UNL1       -0.0815
     30 H           1.2831    2.6756   -0.0343 H       1  UNL1        0.1492
     31 H           2.4952    0.3181    0.9402 H       1  UNL1        0.0542
     32 H           2.5073    0.2609   -0.8388 H       1  UNL1        0.0542
     33 H           4.0157    2.1857    2.1217 H       1  UNL1        0.0652
     34 H           6.0350    3.7297    1.2084 H       1  UNL1        0.0649
     35 H           5.9758    3.6021   -1.4082 H       1  UNL1        0.1029
     36 H          -0.7083    2.3974    2.0269 H       1  UNL1        0.0286
     37 H          -1.0081    3.8209    0.9767 H       1  UNL1        0.0286
     38 H          -2.9740    2.9337    2.6416 H       1  UNL1        0.0279
     39 H          -3.3914    3.4597    0.9762 H       1  UNL1        0.0279
     40 H          -2.8974    0.6144    2.0124 H       1  UNL1        0.0444
     41 H          -4.2475    1.2056    0.9961 H       1  UNL1        0.0444
     42 H          -5.5297   -0.7241   -1.6105 H       1  UNL1        0.0643
     43 H          -6.5588    2.1407   -4.5977 H       1  UNL1        0.0623
     44 H          -4.2546    3.0084   -4.5606 H       1  UNL1        0.0633
@<TRIPOS>BOND
     1     1     2    2
     2     2     3   am
     3     2    10    1
     4     3     4    1
     5     3    30    1
     6     4     5    1
     7     4    31    1
     8     4    32    1
     9     5     9   ar
    10     5     6   ar
    11     6     7   ar
    12     6    33    1
    13     7     8   ar
    14     7    34    1
    15     8     9   ar
    16     8    35    1
    17    10    11    1
    18    10    15    1
    19    10    12    1
    20    12    13    1
    21    12    36    1
    22    12    37    1
    23    13    14    1
    24    13    38    1
    25    13    39    1
    26    14    15    1
    27    14    40    1
    28    14    41    1
    29    16    15    1
    30    16    17    2
    31    16    18    2
    32    16    19    1
    33    19    28   ar
    34    19    20   ar
    35    20    21   ar
    36    20    42    1
    37    21    22    1
    38    21    26   ar
    39    22    23    1
    40    22    24    1
    41    22    25    1
    42    26    27   ar
    43    26    43    1
    44    27    28   ar
    45    27    44    1
    46    28    29    1
