@<TRIPOS>MOLECULE
ZINC000055107700
 49 50 0 0 0
SMALL
GASTEIGER

@<TRIPOS>ATOM
      1 C          -0.0187    1.5258    0.0104 C.3     1  UNL1       -0.0638
      2 C           0.0021   -0.0041    0.0020 C.3     1  UNL1       -0.0364
      3 C           0.7182   -0.4975   -1.2568 C.3     1  UNL1        0.0663
      4 S           0.7428   -2.3113   -1.2668 S.O2    1  UNL1       -0.0200
      5 O           1.5417   -2.7592   -0.1803 O.2     1  UNL1       -0.1736
      6 O          -0.5928   -2.7815   -1.3859 O.2     1  UNL1       -0.1736
      7 C           1.6205   -2.6656   -2.8142 C.3     1  UNL1        0.1498
      8 H           2.6456   -2.3022   -2.7419 H       1  UNL1        0.0630
      9 C           0.9115   -1.9646   -3.9747 C.3     1  UNL1       -0.0342
     10 C           1.6308   -4.1530   -3.0567 C.2     1  UNL1        0.2396
     11 O           0.7671   -4.8525   -2.5713 O.2     1  UNL1       -0.2735
     12 N           2.5998   -4.7058   -3.8129 N.am    1  UNL1       -0.2969
     13 C           3.6600   -3.8766   -4.4059 C.3     1  UNL1        0.0305
     14 C           5.0167   -4.4958   -4.0533 C.3     1  UNL1        0.0280
     15 N           5.0290   -5.9064   -4.4632 N.pl3   1  UNL1       -0.3269
     16 C           6.3013   -6.4615   -4.3085 C.ar    1  UNL1        0.0303
     17 C           7.3435   -5.6869   -3.8157 C.ar    1  UNL1       -0.0406
     18 C           8.6003   -6.2392   -3.6636 C.ar    1  UNL1       -0.0595
     19 C           8.8216   -7.5616   -4.0012 C.ar    1  UNL1       -0.0500
     20 C           7.7861   -8.3356   -4.4926 C.ar    1  UNL1        0.0566
     21 C           8.0320   -9.7765   -4.8593 C.3     1  UNL1        0.4175
     22 F           9.3719  -10.0973   -4.6168 F       1  UNL1       -0.1659
     23 F           7.2078  -10.6016   -4.0865 F       1  UNL1       -0.1659
     24 F           7.7445   -9.9684   -6.2149 F       1  UNL1       -0.1659
     25 C           6.5258   -7.7915   -4.6418 C.ar    1  UNL1       -0.0290
     26 C           4.0225   -6.6837   -3.7279 C.3     1  UNL1        0.0280
     27 C           2.6285   -6.1550   -4.0621 C.3     1  UNL1        0.0305
     28 H           1.0039    1.9031    0.0027 H       1  UNL1        0.0230
     29 H          -0.5459    1.8868   -0.8726 H       1  UNL1        0.0230
     30 H          -0.5289    1.8773    0.9072 H       1  UNL1        0.0230
     31 H           0.5293   -0.3651    0.8851 H       1  UNL1        0.0278
     32 H          -1.0205   -0.3814    0.0098 H       1  UNL1        0.0278
     33 H           0.1910   -0.1364   -2.1398 H       1  UNL1        0.0500
     34 H           1.7408   -0.1202   -1.2645 H       1  UNL1        0.0500
     35 H          -0.1135   -2.3280   -4.0470 H       1  UNL1        0.0253
     36 H           0.9041   -0.8888   -3.7994 H       1  UNL1        0.0253
     37 H           1.4389   -2.1775   -4.9046 H       1  UNL1        0.0253
     38 H           3.5405   -3.8490   -5.4890 H       1  UNL1        0.0480
     39 H           3.6030   -2.8657   -4.0025 H       1  UNL1        0.0480
     40 H           5.8084   -3.9584   -4.5754 H       1  UNL1        0.0479
     41 H           5.1788   -4.4281   -2.9776 H       1  UNL1        0.0479
     42 H           7.1714   -4.6538   -3.5522 H       1  UNL1        0.0636
     43 H           9.4112   -5.6373   -3.2808 H       1  UNL1        0.0618
     44 H           9.8053   -7.9909   -3.8812 H       1  UNL1        0.0623
     45 H           5.7177   -8.3964   -5.0256 H       1  UNL1        0.0641
     46 H           4.0931   -7.7331   -4.0139 H       1  UNL1        0.0479
     47 H           4.1984   -6.5856   -2.6567 H       1  UNL1        0.0479
     48 H           1.8885   -6.6509   -3.4339 H       1  UNL1        0.0480
     49 H           2.4072   -6.3444   -5.1124 H       1  UNL1        0.0480
@<TRIPOS>BOND
     1     1     2    1
     2     1    28    1
     3     1    29    1
     4     1    30    1
     5     2     3    1
     6     2    31    1
     7     2    32    1
     8     3     4    1
     9     3    33    1
    10     3    34    1
    11     4     5    2
    12     4     6    2
    13     4     7    1
    14     7     8    1
    15     7     9    1
    16     7    10    1
    17     9    35    1
    18     9    36    1
    19     9    37    1
    20    10    11    2
    21    10    12   am
    22    12    27    1
    23    12    13    1
    24    13    14    1
    25    13    38    1
    26    13    39    1
    27    14    15    1
    28    14    40    1
    29    14    41    1
    30    15    16    1
    31    15    26    1
    32    16    25   ar
    33    16    17   ar
    34    17    18   ar
    35    17    42    1
    36    18    19   ar
    37    18    43    1
    38    19    20   ar
    39    19    44    1
    40    20    21    1
    41    20    25   ar
    42    21    22    1
    43    21    23    1
    44    21    24    1
    45    25    45    1
    46    26    27    1
    47    26    46    1
    48    26    47    1
    49    27    48    1
    50    27    49    1
