@<TRIPOS>MOLECULE
ZINC000002884207
 57 59 0 0 0
SMALL
GASTEIGER

@<TRIPOS>ATOM
      1 C          -9.0479   -6.1174    4.1558 C.3     1  UNL1        0.0788
      2 O          -9.2316   -4.7919    3.6545 O.3     1  UNL1       -0.4948
      3 C          -8.2799   -4.3143    2.8100 C.ar    1  UNL1        0.1231
      4 C          -7.1948   -5.1071    2.4665 C.ar    1  UNL1       -0.0178
      5 C          -6.2288   -4.6194    1.6074 C.ar    1  UNL1       -0.0319
      6 C          -6.3429   -3.3422    1.0907 C.ar    1  UNL1        0.1060
      7 S          -5.1090   -2.7230   -0.0042 S.O2    1  UNL1        0.0616
      8 O          -5.1590   -1.3063    0.0950 O.2     1  UNL1       -0.1528
      9 O          -3.9325   -3.4787    0.2486 O.2     1  UNL1       -0.1528
     10 N          -5.5858   -3.1011   -1.5443 N.3     1  UNL1       -0.1635
     11 C          -5.2909   -4.4249   -2.0982 C.3     1  UNL1        0.0971
     12 C          -6.4777   -5.3308   -1.8937 C.2     1  UNL1        0.2290
     13 O          -7.4720   -4.9119   -1.3398 O.2     1  UNL1       -0.2743
     14 N          -6.4342   -6.6065   -2.3263 N.am    1  UNL1       -0.3114
     15 C          -7.5880   -7.4871   -2.1276 C.3     1  UNL1        0.0232
     16 C          -8.5686   -7.3485   -3.3103 C.3     1  UNL1       -0.0345
     17 C          -8.1865   -8.5117   -4.2589 C.3     1  UNL1       -0.0513
     18 C          -7.8512   -9.6595   -3.2744 C.3     1  UNL1       -0.0513
     19 C          -7.1318   -8.9565   -2.1047 C.3     1  UNL1       -0.0345
     20 C          -6.3025   -2.1118   -2.3529 C.3     1  UNL1        0.0460
     21 C          -5.3245   -1.3823   -3.2373 C.ar    1  UNL1       -0.0317
     22 C          -4.7921   -0.1736   -2.8293 C.ar    1  UNL1       -0.0573
     23 C          -3.8950    0.4956   -3.6406 C.ar    1  UNL1       -0.0615
     24 C          -3.5299   -0.0441   -4.8598 C.ar    1  UNL1       -0.0617
     25 C          -4.0616   -1.2533   -5.2674 C.ar    1  UNL1       -0.0615
     26 C          -4.9555   -1.9245   -4.4542 C.ar    1  UNL1       -0.0573
     27 C          -7.4240   -2.5500    1.4313 C.ar    1  UNL1       -0.0290
     28 C          -8.3950   -3.0349    2.2855 C.ar    1  UNL1       -0.0070
     29 C          -9.5732   -2.1712    2.6558 C.3     1  UNL1       -0.0362
     30 H          -9.8762   -6.3741    4.8163 H       1  UNL1        0.0660
     31 H          -9.0163   -6.8198    3.3229 H       1  UNL1        0.0660
     32 H          -8.1112   -6.1694    4.7108 H       1  UNL1        0.0660
     33 H          -7.1049   -6.1047    2.8705 H       1  UNL1        0.0655
     34 H          -5.3838   -5.2363    1.3397 H       1  UNL1        0.0638
     35 H          -5.0822   -4.3345   -3.1642 H       1  UNL1        0.0539
     36 H          -4.4217   -4.8451   -1.5922 H       1  UNL1        0.0539
     37 H          -5.6390   -6.9416   -2.7693 H       1  UNL1        0.1490
     38 H          -8.0911   -7.2378   -1.1933 H       1  UNL1        0.0498
     39 H          -9.5976   -7.4579   -2.9677 H       1  UNL1        0.0283
     40 H          -8.4317   -6.3889   -3.8090 H       1  UNL1        0.0283
     41 H          -9.0283   -8.7830   -4.8961 H       1  UNL1        0.0266
     42 H          -7.3149   -8.2504   -4.8590 H       1  UNL1        0.0266
     43 H          -8.7642  -10.1422   -2.9260 H       1  UNL1        0.0266
     44 H          -7.1906  -10.3865   -3.7469 H       1  UNL1        0.0266
     45 H          -6.0520   -9.0144   -2.2416 H       1  UNL1        0.0283
     46 H          -7.4143   -9.4205   -1.1597 H       1  UNL1        0.0283
     47 H          -7.0448   -2.6168   -2.9711 H       1  UNL1        0.0493
     48 H          -6.8010   -1.3985   -1.6966 H       1  UNL1        0.0493
     49 H          -5.0774    0.2481   -1.8768 H       1  UNL1        0.0621
     50 H          -3.4796    1.4403   -3.3221 H       1  UNL1        0.0618
     51 H          -2.8296    0.4791   -5.4939 H       1  UNL1        0.0618
     52 H          -3.7766   -1.6748   -6.2200 H       1  UNL1        0.0618
     53 H          -5.3709   -2.8692   -4.7726 H       1  UNL1        0.0621
     54 H          -7.5110   -1.5527    1.0260 H       1  UNL1        0.0641
     55 H         -10.3803   -2.3318    1.9411 H       1  UNL1        0.0279
     56 H          -9.9162   -2.4342    3.6565 H       1  UNL1        0.0279
     57 H          -9.2751   -1.1229    2.6378 H       1  UNL1        0.0279
@<TRIPOS>BOND
     1     1     2    1
     2     1    30    1
     3     1    31    1
     4     1    32    1
     5     2     3    1
     6     3    28   ar
     7     3     4   ar
     8     4     5   ar
     9     4    33    1
    10     5     6   ar
    11     5    34    1
    12     6     7    1
    13     6    27   ar
    14     7     8    2
    15     7     9    2
    16     7    10    1
    17    10    11    1
    18    10    20    1
    19    11    12    1
    20    11    35    1
    21    11    36    1
    22    12    13    2
    23    12    14   am
    24    14    15    1
    25    14    37    1
    26    15    19    1
    27    15    16    1
    28    15    38    1
    29    16    17    1
    30    16    39    1
    31    16    40    1
    32    17    18    1
    33    17    41    1
    34    17    42    1
    35    18    19    1
    36    18    43    1
    37    18    44    1
    38    19    45    1
    39    19    46    1
    40    20    21    1
    41    20    47    1
    42    20    48    1
    43    21    26   ar
    44    21    22   ar
    45    22    23   ar
    46    22    49    1
    47    23    24   ar
    48    23    50    1
    49    24    25   ar
    50    24    51    1
    51    25    26   ar
    52    25    52    1
    53    26    53    1
    54    27    28   ar
    55    27    54    1
    56    28    29    1
    57    29    55    1
    58    29    56    1
    59    29    57    1
