@<TRIPOS>MOLECULE
ZINC000095370234
 42 43 0 0 0
SMALL
GASTEIGER

@<TRIPOS>ATOM
      1 C          -0.0187    1.5258    0.0104 C.3     1  UNL1       -0.0653
      2 C           0.0021   -0.0041    0.0020 C.3     1  UNL1       -0.0554
      3 C          -1.4333   -0.5336    0.0129 C.3     1  UNL1       -0.0441
      4 C          -1.4126   -2.0635    0.0045 C.3     1  UNL1        0.0175
      5 H          -0.8201   -2.4351   -0.8316 H       1  UNL1        0.0369
      6 C          -0.8714   -2.6096    1.3426 C.3     1  UNL1        0.0287
      7 N          -1.6751   -3.7910    1.6889 N.3     1  UNL1       -0.1708
      8 S          -1.4964   -4.7140    3.0521 S.O2    1  UNL1        0.0610
      9 O          -2.0352   -5.9924    2.7446 O.2     1  UNL1       -0.1528
     10 O          -0.1605   -4.5199    3.4959 O.2     1  UNL1       -0.1528
     11 C          -2.5383   -4.0200    4.2921 C.ar    1  UNL1        0.1055
     12 C          -2.0508   -3.0385    5.1346 C.ar    1  UNL1       -0.0348
     13 C          -2.8683   -2.4941    6.1074 C.ar    1  UNL1       -0.0483
     14 C          -4.1734   -2.9309    6.2373 C.ar    1  UNL1        0.0549
     15 C          -5.0643   -2.3377    7.2981 C.3     1  UNL1        0.4174
     16 F          -5.7352   -1.2266    6.7759 F       1  UNL1       -0.1659
     17 F          -5.9979   -3.2942    7.7114 F       1  UNL1       -0.1659
     18 F          -4.2872   -1.9416    8.3919 F       1  UNL1       -0.1659
     19 C          -4.6613   -3.9114    5.3939 C.ar    1  UNL1       -0.0483
     20 C          -3.8450   -4.4531    4.4186 C.ar    1  UNL1       -0.0348
     21 C          -2.6669   -4.0174    0.6219 C.3     1  UNL1        0.0636
     22 C          -2.8553   -2.6318   -0.0496 C.3     1  UNL1       -0.0056
     23 H          -3.5396   -2.0085    0.5260 H       1  UNL1        0.0866
     24 N          -3.3195   -2.7772   -1.4357 N.4     1  UNL1        0.2219
     25 H          -4.2146   -3.2428   -1.4436 H       1  UNL1        0.1997
     26 H          -3.4112   -1.8650   -1.8571 H       1  UNL1        0.1997
     27 H          -2.6515   -3.3235   -1.9586 H       1  UNL1        0.1997
     28 H           1.0039    1.9031    0.0027 H       1  UNL1        0.0230
     29 H          -0.5459    1.8868   -0.8726 H       1  UNL1        0.0230
     30 H          -0.5289    1.8773    0.9072 H       1  UNL1        0.0230
     31 H           0.5123   -0.3556   -0.8948 H       1  UNL1        0.0263
     32 H           0.5293   -0.3651    0.8851 H       1  UNL1        0.0263
     33 H          -1.9435   -0.1821    0.9097 H       1  UNL1        0.0270
     34 H          -1.9605   -0.1726   -0.8702 H       1  UNL1        0.0270
     35 H           0.1752   -2.8929    1.2312 H       1  UNL1        0.0449
     36 H          -0.9719   -1.8521    2.1199 H       1  UNL1        0.0449
     37 H          -1.0312   -2.6973    5.0331 H       1  UNL1        0.0637
     38 H          -2.4872   -1.7278    6.7661 H       1  UNL1        0.0624
     39 H          -5.6810   -4.2524    5.4952 H       1  UNL1        0.0624
     40 H          -4.2262   -5.2192    3.7597 H       1  UNL1        0.0637
     41 H          -2.2872   -4.7382   -0.1023 H       1  UNL1        0.0500
     42 H          -3.6084   -4.3652    1.0468 H       1  UNL1        0.0500
@<TRIPOS>UNITY_ATOM_ATTR
24 1
charge 1
@<TRIPOS>BOND
     1     1     2    1
     2     1    28    1
     3     1    29    1
     4     1    30    1
     5     2     3    1
     6     2    31    1
     7     2    32    1
     8     3     4    1
     9     3    33    1
    10     3    34    1
    11     4     5    1
    12     4    22    1
    13     4     6    1
    14     6     7    1
    15     6    35    1
    16     6    36    1
    17     8     7    1
    18     7    21    1
    19     8     9    2
    20     8    10    2
    21     8    11    1
    22    11    20   ar
    23    11    12   ar
    24    12    13   ar
    25    12    37    1
    26    13    14   ar
    27    13    38    1
    28    14    15    1
    29    14    19   ar
    30    15    16    1
    31    15    17    1
    32    15    18    1
    33    19    20   ar
    34    19    39    1
    35    20    40    1
    36    21    22    1
    37    21    41    1
    38    21    42    1
    39    22    23    1
    40    22    24    1
    41    24    25    1
    42    24    26    1
    43    24    27    1
