@<TRIPOS>MOLECULE
ZINC000028208259
 52 52 0 0 0
SMALL
GASTEIGER

@<TRIPOS>ATOM
      1 C          -0.0187    1.5258    0.0104 C.3     1  UNL1       -0.0652
      2 C           0.0021   -0.0041    0.0020 C.3     1  UNL1       -0.0542
      3 C           0.7421   -0.5109    1.2415 C.3     1  UNL1       -0.0350
      4 C           0.7628   -2.0407    1.2331 C.3     1  UNL1        0.0204
      5 H           1.1931   -2.3931    0.2957 H       1  UNL1        0.0495
      6 C           1.6083   -2.5458    2.4040 C.3     1  UNL1       -0.0466
      7 N          -0.6052   -2.5484    1.3639 N.am    1  UNL1       -0.3099
      8 C          -0.9177   -3.7721    0.8935 C.2     1  UNL1        0.2509
      9 O          -0.0664   -4.4531    0.3620 O.2     1  UNL1       -0.2721
     10 C          -2.3249   -4.2944    1.0279 C.3     1  UNL1        0.1652
     11 O          -2.4040   -5.6024    0.4581 O.3     1  UNL1       -0.4813
     12 C          -3.6140   -6.2205    0.4974 C.ar    1  UNL1        0.1395
     13 C          -4.7034   -5.5791    1.0671 C.ar    1  UNL1       -0.0166
     14 C          -5.9327   -6.2092    1.1055 C.ar    1  UNL1       -0.0318
     15 C          -6.0775   -7.4783    0.5771 C.ar    1  UNL1        0.1071
     16 S          -7.6465   -8.2784    0.6279 S.O2    1  UNL1        0.0609
     17 O          -7.3882   -9.6736    0.5511 O.2     1  UNL1       -0.1528
     18 O          -8.3681   -7.6792    1.6954 O.2     1  UNL1       -0.1528
     19 N          -8.4483   -7.8740   -0.7635 N.3     1  UNL1       -0.1771
     20 C          -8.3056   -8.7075   -1.9598 C.3     1  UNL1        0.0177
     21 C          -9.4573   -9.7128   -2.0213 C.3     1  UNL1       -0.0507
     22 C          -9.3004   -6.6828   -0.7981 C.3     1  UNL1        0.0177
     23 C          -8.5010   -5.4998   -1.3480 C.3     1  UNL1       -0.0507
     24 C          -4.9932   -8.1209    0.0081 C.ar    1  UNL1       -0.0134
     25 C          -3.7628   -7.4930   -0.0381 C.ar    1  UNL1        0.0844
     26 CL         -2.4016   -8.2998   -0.7524 Cl      1  UNL1       -0.0797
     27 H           1.0039    1.9031    0.0027 H       1  UNL1        0.0230
     28 H          -0.5459    1.8868   -0.8726 H       1  UNL1        0.0230
     29 H          -0.5289    1.8773    0.9072 H       1  UNL1        0.0230
     30 H          -1.0205   -0.3814    0.0098 H       1  UNL1        0.0263
     31 H           0.5123   -0.3556   -0.8948 H       1  UNL1        0.0263
     32 H           1.7647   -0.1336    1.2338 H       1  UNL1        0.0283
     33 H           0.2319   -0.1594    2.1383 H       1  UNL1        0.0283
     34 H           1.1780   -2.1934    3.3415 H       1  UNL1        0.0247
     35 H           1.6231   -3.6357    2.3980 H       1  UNL1        0.0247
     36 H           2.6261   -2.1681    2.3068 H       1  UNL1        0.0247
     37 H          -1.2861   -2.0038    1.7889 H       1  UNL1        0.1491
     38 H          -2.5961   -4.3405    2.0827 H       1  UNL1        0.0795
     39 H          -3.0112   -3.6282    0.5052 H       1  UNL1        0.0795
     40 H          -4.5911   -4.5878    1.4809 H       1  UNL1        0.0655
     41 H          -6.7812   -5.7097    1.5493 H       1  UNL1        0.0638
     42 H          -8.3271   -8.0755   -2.8476 H       1  UNL1        0.0441
     43 H          -7.3573   -9.2434   -1.9182 H       1  UNL1        0.0441
     44 H         -10.4055   -9.1768   -2.0629 H       1  UNL1        0.0243
     45 H          -9.3511  -10.3329   -2.9114 H       1  UNL1        0.0243
     46 H          -9.4358  -10.3448   -1.1335 H       1  UNL1        0.0243
     47 H         -10.1607   -6.8700   -1.4406 H       1  UNL1        0.0441
     48 H          -9.6434   -6.4520    0.2105 H       1  UNL1        0.0441
     49 H          -9.1349   -4.6134   -1.3737 H       1  UNL1        0.0243
     50 H          -7.6406   -5.3125   -0.7054 H       1  UNL1        0.0243
     51 H          -8.1579   -5.7305   -2.3565 H       1  UNL1        0.0243
     52 H          -5.1088   -9.1124   -0.4041 H       1  UNL1        0.0653
@<TRIPOS>BOND
     1     1     2    1
     2     1    27    1
     3     1    28    1
     4     1    29    1
     5     2     3    1
     6     2    30    1
     7     2    31    1
     8     3     4    1
     9     3    32    1
    10     3    33    1
    11     4     5    1
    12     4     6    1
    13     4     7    1
    14     6    34    1
    15     6    35    1
    16     6    36    1
    17     7     8   am
    18     7    37    1
    19     8     9    2
    20     8    10    1
    21    10    11    1
    22    10    38    1
    23    10    39    1
    24    11    12    1
    25    12    25   ar
    26    12    13   ar
    27    13    14   ar
    28    13    40    1
    29    14    15   ar
    30    14    41    1
    31    15    16    1
    32    15    24   ar
    33    16    17    2
    34    16    18    2
    35    16    19    1
    36    19    20    1
    37    19    22    1
    38    20    21    1
    39    20    42    1
    40    20    43    1
    41    21    44    1
    42    21    45    1
    43    21    46    1
    44    22    23    1
    45    22    47    1
    46    22    48    1
    47    23    49    1
    48    23    50    1
    49    23    51    1
    50    24    25   ar
    51    24    52    1
    52    25    26    1
