@<TRIPOS>MOLECULE
ZINC000008699061
 37 38 0 0 0
SMALL
GASTEIGER

@<TRIPOS>ATOM
      1 O          -1.9459    2.2402   -2.2463 O.co2   1  UNL1       -0.2449
      2 C          -1.1245    2.4789   -1.3775 C.2     1  UNL1        0.3697
      3 O          -0.1397    3.1491   -1.6371 O.co2   1  UNL1       -0.2449
      4 C          -1.3296    1.9507    0.0190 C.3     1  UNL1        0.1012
      5 N          -2.5076    1.0733    0.0425 N.3     1  UNL1       -0.2898
      6 C          -2.3399   -0.0578   -0.8798 C.3     1  UNL1        0.0139
      7 C          -3.5011   -1.0404   -0.6941 C.3     1  UNL1        0.0333
      8 N          -4.7652   -0.3025   -0.8382 N.3     1  UNL1       -0.1741
      9 S          -5.9489   -0.8369   -1.8656 S.O2    1  UNL1        0.0609
     10 O          -6.7355    0.2992   -2.1970 O.2     1  UNL1       -0.1528
     11 O          -5.3010   -1.6443   -2.8390 O.2     1  UNL1       -0.1528
     12 C          -6.9942   -1.9135   -0.9420 C.ar    1  UNL1        0.1055
     13 C          -6.7139   -3.2658   -0.8825 C.ar    1  UNL1       -0.0348
     14 C          -7.5339   -4.1104   -0.1580 C.ar    1  UNL1       -0.0483
     15 C          -8.6340   -3.6027    0.5076 C.ar    1  UNL1        0.0549
     16 C          -9.5282   -4.5235    1.2971 C.3     1  UNL1        0.4174
     17 F          -9.0638   -4.6086    2.6140 F       1  UNL1       -0.1659
     18 F         -10.8338   -4.0209    1.2946 F       1  UNL1       -0.1659
     19 F          -9.5172   -5.7959    0.7156 F       1  UNL1       -0.1659
     20 C          -8.9135   -2.2501    0.4492 C.ar    1  UNL1       -0.0483
     21 C          -8.0913   -1.4049   -0.2722 C.ar    1  UNL1       -0.0348
     22 C          -4.9502    0.9224   -0.0453 C.3     1  UNL1        0.0333
     23 C          -3.7320    1.8277   -0.2565 C.3     1  UNL1        0.0139
     24 H          -0.4497    1.3859    0.3267 H       1  UNL1        0.0543
     25 H          -1.4840    2.7845    0.7038 H       1  UNL1        0.0543
     26 H          -2.3337    0.3079   -1.9066 H       1  UNL1        0.0440
     27 H          -1.3980   -0.5636   -0.6676 H       1  UNL1        0.0440
     28 H          -3.4446   -1.8215   -1.4522 H       1  UNL1        0.0456
     29 H          -3.4484   -1.4859    0.2993 H       1  UNL1        0.0456
     30 H          -5.8544   -3.6625   -1.4025 H       1  UNL1        0.0637
     31 H          -7.3153   -5.1671   -0.1121 H       1  UNL1        0.0624
     32 H          -9.7728   -1.8534    0.9695 H       1  UNL1        0.0624
     33 H          -8.3097   -0.3482   -0.3178 H       1  UNL1        0.0637
     34 H          -5.8518    1.4389   -0.3745 H       1  UNL1        0.0456
     35 H          -5.0369    0.6655    1.0105 H       1  UNL1        0.0456
     36 H          -3.7997    2.6893    0.4076 H       1  UNL1        0.0440
     37 H          -3.7064    2.1672   -1.2920 H       1  UNL1        0.0440
@<TRIPOS>BOND
     1     1     2   ar
     2     2     3   ar
     3     2     4    1
     4     4     5    1
     5     4    24    1
     6     4    25    1
     7     5    23    1
     8     5     6    1
     9     6     7    1
    10     6    26    1
    11     6    27    1
    12     7     8    1
    13     7    28    1
    14     7    29    1
    15     9     8    1
    16     8    22    1
    17     9    10    2
    18     9    11    2
    19     9    12    1
    20    12    21   ar
    21    12    13   ar
    22    13    14   ar
    23    13    30    1
    24    14    15   ar
    25    14    31    1
    26    15    16    1
    27    15    20   ar
    28    16    17    1
    29    16    18    1
    30    16    19    1
    31    20    21   ar
    32    20    32    1
    33    21    33    1
    34    22    23    1
    35    22    34    1
    36    22    35    1
    37    23    36    1
    38    23    37    1
