@<TRIPOS>MOLECULE
ZINC000408600838
 47 48 0 0 0
SMALL
GASTEIGER

@<TRIPOS>ATOM
      1 C          -0.0062    1.5526    0.0062 C.3     1  UNL1       -0.0507
      2 C           0.0154    0.0228   -0.0122 C.3     1  UNL1        0.0177
      3 N          -1.3588   -0.4850   -0.0092 N.3     1  UNL1       -0.1771
      4 C          -2.0925   -0.6201   -1.2700 C.3     1  UNL1        0.0177
      5 C          -1.7528   -1.9647   -1.9162 C.3     1  UNL1       -0.0507
      6 S          -2.0827   -0.9063    1.4194 S.O2    1  UNL1        0.0608
      7 O          -3.1086   -1.8332    1.0912 O.2     1  UNL1       -0.1528
      8 O          -1.0323   -1.1999    2.3302 O.2     1  UNL1       -0.1528
      9 C          -2.8909    0.5318    2.0385 C.ar    1  UNL1        0.1057
     10 C          -2.2103    1.4017    2.8704 C.ar    1  UNL1       -0.0319
     11 C          -2.8417    2.5299    3.3572 C.ar    1  UNL1       -0.0181
     12 C          -4.1595    2.7899    3.0103 C.ar    1  UNL1        0.1213
     13 O          -4.7827    3.8994    3.4876 O.3     1  UNL1       -0.4828
     14 C          -6.1397    4.1033    3.0889 C.3     1  UNL1        0.1655
     15 C          -6.6605    5.3734    3.7107 C.2     1  UNL1        0.2548
     16 O          -5.9404    6.0386    4.4249 O.2     1  UNL1       -0.2717
     17 N          -7.9264    5.7703    3.4731 N.am    1  UNL1       -0.2827
     18 C          -8.4411    6.8959    4.1261 C.ar    1  UNL1        0.0335
     19 C          -9.7762    6.9296    4.5068 C.ar    1  UNL1       -0.0395
     20 C         -10.2813    8.0418    5.1510 C.ar    1  UNL1       -0.0469
     21 C          -9.4588    9.1219    5.4169 C.ar    1  UNL1        0.0135
     22 I         -10.2295   10.8074    6.3938 I       1  UNL1       -0.0438
     23 C          -8.1284    9.0911    5.0392 C.ar    1  UNL1       -0.0469
     24 C          -7.6163    7.9792    4.3998 C.ar    1  UNL1       -0.0395
     25 C          -4.8400    1.9158    2.1752 C.ar    1  UNL1       -0.0181
     26 C          -4.2027    0.7915    1.6872 C.ar    1  UNL1       -0.0319
     27 H           1.0162    1.9304    0.0040 H       1  UNL1        0.0243
     28 H          -0.5309    1.9192   -0.8760 H       1  UNL1        0.0243
     29 H          -0.5192    1.8979    0.9038 H       1  UNL1        0.0243
     30 H           0.5284   -0.3225   -0.9097 H       1  UNL1        0.0441
     31 H           0.5401   -0.3438    0.8701 H       1  UNL1        0.0441
     32 H          -3.1636   -0.5715   -1.0741 H       1  UNL1        0.0441
     33 H          -1.8093    0.1886   -1.9437 H       1  UNL1        0.0441
     34 H          -2.0360   -2.7735   -1.2425 H       1  UNL1        0.0243
     35 H          -2.2987   -2.0652   -2.8543 H       1  UNL1        0.0243
     36 H          -0.6816   -2.0133   -2.1121 H       1  UNL1        0.0243
     37 H          -1.1844    1.1987    3.1401 H       1  UNL1        0.0638
     38 H          -2.3099    3.2086    4.0075 H       1  UNL1        0.0655
     39 H          -6.1914    4.1826    2.0030 H       1  UNL1        0.0795
     40 H          -6.7465    3.2609    3.4210 H       1  UNL1        0.0795
     41 H          -8.4808    5.2757    2.8494 H       1  UNL1        0.1549
     42 H         -10.4189    6.0869    4.2989 H       1  UNL1        0.0636
     43 H         -11.3195    8.0686    5.4473 H       1  UNL1        0.0628
     44 H          -7.4886    9.9357    5.2480 H       1  UNL1        0.0628
     45 H          -6.5775    7.9556    4.1052 H       1  UNL1        0.0636
     46 H          -5.8661    2.1159    1.9040 H       1  UNL1        0.0655
     47 H          -4.7319    0.1109    1.0367 H       1  UNL1        0.0638
@<TRIPOS>BOND
     1     1     2    1
     2     1    27    1
     3     1    28    1
     4     1    29    1
     5     2     3    1
     6     2    30    1
     7     2    31    1
     8     3     4    1
     9     6     3    1
    10     4     5    1
    11     4    32    1
    12     4    33    1
    13     5    34    1
    14     5    35    1
    15     5    36    1
    16     6     7    2
    17     6     8    2
    18     6     9    1
    19     9    26   ar
    20     9    10   ar
    21    10    11   ar
    22    10    37    1
    23    11    12   ar
    24    11    38    1
    25    12    13    1
    26    12    25   ar
    27    13    14    1
    28    14    15    1
    29    14    39    1
    30    14    40    1
    31    15    16    2
    32    15    17   am
    33    17    18    1
    34    17    41    1
    35    18    24   ar
    36    18    19   ar
    37    19    20   ar
    38    19    42    1
    39    20    21   ar
    40    20    43    1
    41    21    22    1
    42    21    23   ar
    43    23    24   ar
    44    23    44    1
    45    24    45    1
    46    25    26   ar
    47    25    46    1
    48    26    47    1
