@<TRIPOS>MOLECULE
ZINC000585145908
 44 45 0 0 0
SMALL
GASTEIGER

@<TRIPOS>ATOM
      1 C          -1.9892    1.9358    0.6711 C.3     1  UNL1       -0.0523
      2 C          -1.7946    0.5193    1.2156 C.3     1  UNL1       -0.0036
      3 N          -1.4475   -0.3861    0.1121 N.3     1  UNL1       -0.2972
      4 C          -0.1356   -0.0462   -0.4548 C.3     1  UNL1       -0.0036
      5 C           0.0211   -0.7217   -1.8187 C.3     1  UNL1       -0.0523
      6 C          -1.4848   -1.7879    0.5497 C.3     1  UNL1        0.0418
      7 C          -2.9176   -2.2410    0.6624 C.ar    1  UNL1        0.0645
      8 C          -3.5508   -2.8821   -0.3218 C.ar    1  UNL1        0.0015
      9 S          -5.1920   -3.2268    0.2180 S.2     1  UNL1       -0.0602
     10 C          -4.8675   -2.4739    1.7183 C.ar    1  UNL1        0.1646
     11 N          -5.7790   -2.3497    2.7604 N.am    1  UNL1       -0.2647
     12 C          -7.0260   -2.8433    2.6274 C.2     1  UNL1        0.2189
     13 O          -7.3530   -3.3958    1.5984 O.2     1  UNL1       -0.2754
     14 C          -8.0142   -2.7087    3.7572 C.3     1  UNL1        0.0283
     15 C          -9.3437   -3.3476    3.3508 C.3     1  UNL1       -0.0193
     16 C         -10.3318   -3.2130    4.4806 C.ar    1  UNL1       -0.0440
     17 C         -10.4277   -4.1899    5.4598 C.ar    1  UNL1       -0.0404
     18 C         -11.3458   -4.0323    6.4807 C.ar    1  UNL1        0.0278
     19 N         -12.1244   -2.9691    6.5295 N.ar    1  UNL1       -0.2632
     20 C         -12.0607   -2.0205    5.6158 C.ar    1  UNL1        0.0278
     21 C         -11.1627   -2.1065    4.5688 C.ar    1  UNL1       -0.0404
     22 N          -3.6461   -2.0408    1.7447 N.ar    1  UNL1       -0.2283
     23 H          -2.2468    2.6076    1.4900 H       1  UNL1        0.0242
     24 H          -1.0662    2.2741    0.2003 H       1  UNL1        0.0242
     25 H          -2.7934    1.9349   -0.0647 H       1  UNL1        0.0242
     26 H          -0.9905    0.5202    1.9515 H       1  UNL1        0.0424
     27 H          -2.7176    0.1810    1.6865 H       1  UNL1        0.0424
     28 H          -0.0601    1.0346   -0.5738 H       1  UNL1        0.0424
     29 H           0.6508   -0.3938    0.2152 H       1  UNL1        0.0424
     30 H          -0.7550   -0.3612   -2.4939 H       1  UNL1        0.0242
     31 H           1.0013   -0.4835   -2.2317 H       1  UNL1        0.0242
     32 H          -0.0715   -1.8015   -1.7022 H       1  UNL1        0.0242
     33 H          -0.9632   -2.4096   -0.1780 H       1  UNL1        0.0491
     34 H          -0.9976   -1.8785    1.5205 H       1  UNL1        0.0491
     35 H          -3.1307   -3.1437   -1.2818 H       1  UNL1        0.0713
     36 H          -5.5175   -1.9078    3.5834 H       1  UNL1        0.1567
     37 H          -7.6248   -3.2119    4.6423 H       1  UNL1        0.0362
     38 H          -8.1711   -1.6531    3.9789 H       1  UNL1        0.0362
     39 H          -9.7330   -2.8444    2.4657 H       1  UNL1        0.0318
     40 H          -9.1868   -4.4032    3.1291 H       1  UNL1        0.0318
     41 H          -9.7933   -5.0632    5.4249 H       1  UNL1        0.0635
     42 H         -11.4267   -4.7888    7.2473 H       1  UNL1        0.0829
     43 H         -12.7150   -1.1643    5.6888 H       1  UNL1        0.0829
     44 H         -11.1150   -1.3261    3.8237 H       1  UNL1        0.0635
@<TRIPOS>BOND
     1     1     2    1
     2     1    23    1
     3     1    24    1
     4     1    25    1
     5     2     3    1
     6     2    26    1
     7     2    27    1
     8     3     4    1
     9     3     6    1
    10     4     5    1
    11     4    28    1
    12     4    29    1
    13     5    30    1
    14     5    31    1
    15     5    32    1
    16     6     7    1
    17     6    33    1
    18     6    34    1
    19     7    22   ar
    20     7     8   ar
    21     8     9   ar
    22     8    35    1
    23     9    10   ar
    24    10    11    1
    25    10    22   ar
    26    11    12   am
    27    11    36    1
    28    12    13    2
    29    12    14    1
    30    14    15    1
    31    14    37    1
    32    14    38    1
    33    15    16    1
    34    15    39    1
    35    15    40    1
    36    16    21   ar
    37    16    17   ar
    38    17    18   ar
    39    17    41    1
    40    18    19   ar
    41    18    42    1
    42    19    20   ar
    43    20    21   ar
    44    20    43    1
    45    21    44    1
