@<TRIPOS>MOLECULE
ZINC000357228869
 44 45 0 0 0
SMALL
GASTEIGER

@<TRIPOS>ATOM
      1 C          -0.0187    1.5258    0.0104 C.3     1  UNL1       -0.0507
      2 C           0.0021   -0.0041    0.0020 C.3     1  UNL1        0.0177
      3 N           0.6878   -0.4765   -1.2033 N.3     1  UNL1       -0.1771
      4 C           2.1478   -0.5966   -1.2159 C.3     1  UNL1        0.0177
      5 C           2.5532   -1.9514   -0.6319 C.3     1  UNL1       -0.0507
      6 S          -0.1875   -0.8749   -2.5515 S.O2    1  UNL1        0.0608
      7 O           0.6166   -1.7761   -3.3001 O.2     1  UNL1       -0.1528
      8 O          -1.4970   -1.1925   -2.1004 O.2     1  UNL1       -0.1528
      9 C          -0.3375    0.5853   -3.5262 C.ar    1  UNL1        0.1057
     10 C          -1.4064    1.4399   -3.3289 C.ar    1  UNL1       -0.0319
     11 C          -1.5263    2.5854   -4.0918 C.ar    1  UNL1       -0.0181
     12 C          -0.5728    2.8781   -5.0561 C.ar    1  UNL1        0.1213
     13 O          -0.6883    4.0045   -5.8076 O.3     1  UNL1       -0.4828
     14 C           0.3301    4.2420   -6.7815 C.3     1  UNL1        0.1651
     15 C           0.0367    5.5269   -7.5122 C.2     1  UNL1        0.2509
     16 O          -0.9477    6.1755   -7.2270 O.2     1  UNL1       -0.2721
     17 N           0.8681    5.9553   -8.4825 N.am    1  UNL1       -0.3097
     18 C           0.5828    7.2044   -9.1929 C.3     1  UNL1        0.0233
     19 C           1.7526    8.1587   -9.4416 C.3     1  UNL1       -0.0328
     20 C           1.1552    7.3618  -10.6030 C.3     1  UNL1       -0.0328
     21 C           0.4989    2.0192   -5.2518 C.ar    1  UNL1       -0.0181
     22 C           0.6169    0.8775   -4.4830 C.ar    1  UNL1       -0.0319
     23 H           1.0039    1.9031    0.0027 H       1  UNL1        0.0243
     24 H          -0.5459    1.8868   -0.8726 H       1  UNL1        0.0243
     25 H          -0.5289    1.8773    0.9072 H       1  UNL1        0.0243
     26 H           0.5293   -0.3651    0.8851 H       1  UNL1        0.0441
     27 H          -1.0205   -0.3814    0.0098 H       1  UNL1        0.0441
     28 H           2.5098   -0.5199   -2.2412 H       1  UNL1        0.0441
     29 H           2.5833    0.2026   -0.6162 H       1  UNL1        0.0441
     30 H           2.1912   -2.0280    0.3934 H       1  UNL1        0.0243
     31 H           2.1177   -2.7506   -1.2316 H       1  UNL1        0.0243
     32 H           3.6395   -2.0407   -0.6413 H       1  UNL1        0.0243
     33 H          -2.1483    1.2116   -2.5781 H       1  UNL1        0.0638
     34 H          -2.3617    3.2523   -3.9379 H       1  UNL1        0.0655
     35 H           1.2971    4.3193   -6.2845 H       1  UNL1        0.0795
     36 H           0.3522    3.4164   -7.4928 H       1  UNL1        0.0795
     37 H           1.6554    5.4366   -8.7106 H       1  UNL1        0.1491
     38 H          -0.3937    7.6459   -8.9939 H       1  UNL1        0.0498
     39 H           1.5458    9.2283   -9.4061 H       1  UNL1        0.0284
     40 H           2.7345    7.8571   -9.0767 H       1  UNL1        0.0284
     41 H           1.7441    6.5359  -11.0022 H       1  UNL1        0.0284
     42 H           0.5555    7.9071  -11.3317 H       1  UNL1        0.0284
     43 H           1.2423    2.2447   -6.0021 H       1  UNL1        0.0655
     44 H           1.4512    0.2087   -4.6347 H       1  UNL1        0.0638
@<TRIPOS>BOND
     1     1     2    1
     2     1    23    1
     3     1    24    1
     4     1    25    1
     5     2     3    1
     6     2    26    1
     7     2    27    1
     8     3     4    1
     9     6     3    1
    10     4     5    1
    11     4    28    1
    12     4    29    1
    13     5    30    1
    14     5    31    1
    15     5    32    1
    16     6     7    2
    17     6     8    2
    18     6     9    1
    19     9    22   ar
    20     9    10   ar
    21    10    11   ar
    22    10    33    1
    23    11    12   ar
    24    11    34    1
    25    12    13    1
    26    12    21   ar
    27    13    14    1
    28    14    15    1
    29    14    35    1
    30    14    36    1
    31    15    16    2
    32    15    17   am
    33    17    18    1
    34    17    37    1
    35    18    20    1
    36    18    19    1
    37    18    38    1
    38    19    20    1
    39    19    39    1
    40    19    40    1
    41    20    41    1
    42    20    42    1
    43    21    22   ar
    44    21    43    1
    45    22    44    1
