@<TRIPOS>MOLECULE
ZINC000514288578
 39 41 0 0 0
SMALL
GASTEIGER

@<TRIPOS>ATOM
      1 C          -0.5482    1.2950   -0.0674 C.3     1  UNL1        0.0039
      2 N          -0.4732   -0.1665   -0.0004 N.am    1  UNL1       -0.2926
      3 C          -0.6407   -0.8664   -1.1432 C.2     1  UNL1        0.2503
      4 O          -0.7287   -0.3029   -2.2170 O.2     1  UNL1       -0.2699
      5 C          -0.7135   -2.3496   -1.0460 C.ar    1  UNL1        0.0790
      6 C           0.0864   -3.1864   -1.8086 C.ar    1  UNL1       -0.0345
      7 C          -0.1035   -4.5537   -1.7176 C.ar    1  UNL1        0.0558
      8 C           0.7571   -5.4901   -2.5260 C.3     1  UNL1        0.4174
      9 F           1.8934   -5.8349   -1.7863 F       1  UNL1       -0.1659
     10 F           0.0302   -6.6461   -2.8301 F       1  UNL1       -0.1659
     11 F           1.1467   -4.8587   -3.7121 F       1  UNL1       -0.1659
     12 C          -1.0852   -5.0612   -0.8824 C.ar    1  UNL1       -0.0466
     13 C          -1.8598   -4.2258   -0.1016 C.ar    1  UNL1       -0.0186
     14 C          -1.6505   -2.8508   -0.1485 C.ar    1  UNL1        0.1332
     15 O          -2.2375   -2.0524    0.7642 O.3     1  UNL1       -0.4848
     16 C          -1.4329   -1.5773    1.8320 C.3     1  UNL1        0.1341
     17 H          -2.0248   -0.9569    2.5049 H       1  UNL1        0.0766
     18 C          -0.7962   -2.7474    2.6032 C.3     1  UNL1        0.0590
     19 N           0.4590   -3.0560    1.9005 N.3     1  UNL1       -0.1759
     20 S           1.2645   -4.5018    1.9578 S.O2    1  UNL1        0.0291
     21 C           2.2785   -4.3959    3.4582 C.3     1  UNL1        0.0707
     22 O           0.2364   -5.4696    2.1180 O.2     1  UNL1       -0.1583
     23 O           2.0864   -4.4911    0.7987 O.2     1  UNL1       -0.1583
     24 C           0.8801   -1.8742    1.1406 C.3     1  UNL1        0.0424
     25 C          -0.2181   -0.7787    1.2849 C.3     1  UNL1        0.0784
     26 H           0.0993   -0.0260    2.0066 H       1  UNL1        0.0551
     27 H           0.4440    1.7011   -0.2638 H       1  UNL1        0.0429
     28 H          -1.2259    1.5876   -0.8694 H       1  UNL1        0.0429
     29 H          -0.9186    1.6837    0.8812 H       1  UNL1        0.0429
     30 H           0.8436   -2.7784   -2.4618 H       1  UNL1        0.0632
     31 H          -1.2478   -6.1281   -0.8414 H       1  UNL1        0.0624
     32 H          -2.6236   -4.6373    0.5416 H       1  UNL1        0.0654
     33 H          -0.5884   -2.4511    3.6314 H       1  UNL1        0.0481
     34 H          -1.4586   -3.6128    2.5873 H       1  UNL1        0.0481
     35 H           1.6302   -4.2914    4.3282 H       1  UNL1        0.0479
     36 H           2.8764   -5.3018    3.5573 H       1  UNL1        0.0479
     37 H           2.9381   -3.5307    3.3906 H       1  UNL1        0.0479
     38 H           1.8232   -1.4982    1.5371 H       1  UNL1        0.0463
     39 H           1.0012   -2.1362    0.0895 H       1  UNL1        0.0463
@<TRIPOS>BOND
     1     1     2    1
     2     1    27    1
     3     1    28    1
     4     1    29    1
     5     2    25    1
     6     2     3   am
     7     3     4    2
     8     3     5    1
     9     5    14   ar
    10     5     6   ar
    11     6     7   ar
    12     6    30    1
    13     7     8    1
    14     7    12   ar
    15     8     9    1
    16     8    10    1
    17     8    11    1
    18    12    13   ar
    19    12    31    1
    20    13    14   ar
    21    13    32    1
    22    14    15    1
    23    15    16    1
    24    16    17    1
    25    16    25    1
    26    16    18    1
    27    18    19    1
    28    18    33    1
    29    18    34    1
    30    20    19    1
    31    19    24    1
    32    20    21    1
    33    20    22    2
    34    20    23    2
    35    21    35    1
    36    21    36    1
    37    21    37    1
    38    24    25    1
    39    24    38    1
    40    24    39    1
    41    25    26    1
