@<TRIPOS>MOLECULE
ZINC000007308187
 37 38 0 0 0
SMALL
GASTEIGER

@<TRIPOS>ATOM
      1 C          -0.0187    1.5258    0.0104 C.3     1  UNL1       -0.0374
      2 C           0.0021   -0.0041    0.0020 C.3     1  UNL1        0.0706
      3 H          -1.0202   -0.3821    0.0097 H       1  UNL1        0.0606
      4 C           0.7217   -0.4995   -1.2576 C.3     1  UNL1        0.0466
      5 N           2.1434   -0.1346   -1.1537 N.3     1  UNL1       -0.1717
      6 S           2.9146    0.6508   -2.3910 S.O2    1  UNL1        0.0610
      7 O           4.2993    0.3674   -2.2449 O.2     1  UNL1       -0.1528
      8 O           2.1813    0.3564   -3.5720 O.2     1  UNL1       -0.1528
      9 C           2.7281    2.3799   -2.1076 C.ar    1  UNL1        0.1055
     10 C           1.6375    3.0518   -2.6274 C.ar    1  UNL1       -0.0348
     11 C           1.4912    4.4082   -2.4051 C.ar    1  UNL1       -0.0483
     12 C           2.4352    5.0928   -1.6627 C.ar    1  UNL1        0.0549
     13 C           2.2759    6.5717   -1.4208 C.3     1  UNL1        0.4174
     14 F           1.5450    6.7759   -0.2455 F       1  UNL1       -0.1659
     15 F           3.5379    7.1620   -1.2936 F       1  UNL1       -0.1659
     16 F           1.5970    7.1501   -2.4986 F       1  UNL1       -0.1659
     17 C           3.5251    4.4206   -1.1418 C.ar    1  UNL1       -0.0483
     18 C           3.6694    3.0634   -1.3608 C.ar    1  UNL1       -0.0348
     19 C           2.8596   -0.4879    0.0822 C.3     1  UNL1        0.0466
     20 C           2.0359    0.0069    1.2766 C.3     1  UNL1        0.0706
     21 H           2.0285    1.0968    1.2873 H       1  UNL1        0.0606
     22 C           2.6558   -0.5126    2.5753 C.3     1  UNL1       -0.0374
     23 O           0.6954   -0.4786    1.1587 O.3     1  UNL1       -0.3713
     24 H           1.0039    1.9031    0.0027 H       1  UNL1        0.0255
     25 H          -0.5459    1.8868   -0.8726 H       1  UNL1        0.0255
     26 H          -0.5289    1.8773    0.9072 H       1  UNL1        0.0255
     27 H           0.6252   -1.5825   -1.3336 H       1  UNL1        0.0469
     28 H           0.2853   -0.0289   -2.1387 H       1  UNL1        0.0469
     29 H           0.9000    2.5169   -3.2074 H       1  UNL1        0.0637
     30 H           0.6395    4.9333   -2.8117 H       1  UNL1        0.0624
     31 H           4.2624    4.9553   -0.5614 H       1  UNL1        0.0624
     32 H           4.5208    2.5382   -0.9539 H       1  UNL1        0.0637
     33 H           2.9784   -1.5698    0.1412 H       1  UNL1        0.0469
     34 H           3.8391   -0.0097    0.0885 H       1  UNL1        0.0469
     35 H           3.6783   -0.1450    2.6624 H       1  UNL1        0.0255
     36 H           2.0696   -0.1604    3.4241 H       1  UNL1        0.0255
     37 H           2.6612   -1.6026    2.5648 H       1  UNL1        0.0255
@<TRIPOS>BOND
     1     1     2    1
     2     1    24    1
     3     1    25    1
     4     1    26    1
     5     2     3    1
     6     2    23    1
     7     2     4    1
     8     4     5    1
     9     4    27    1
    10     4    28    1
    11     6     5    1
    12     5    19    1
    13     6     7    2
    14     6     8    2
    15     6     9    1
    16     9    18   ar
    17     9    10   ar
    18    10    11   ar
    19    10    29    1
    20    11    12   ar
    21    11    30    1
    22    12    13    1
    23    12    17   ar
    24    13    14    1
    25    13    15    1
    26    13    16    1
    27    17    18   ar
    28    17    31    1
    29    18    32    1
    30    19    20    1
    31    19    33    1
    32    19    34    1
    33    20    21    1
    34    20    22    1
    35    20    23    1
    36    22    35    1
    37    22    36    1
    38    22    37    1
