@<TRIPOS>MOLECULE
ZINC000096319995
 48 50 0 0 0
SMALL
GASTEIGER

@<TRIPOS>ATOM
      1 C           0.0146    1.5034    0.0107 C.3     1  UNL1       -0.0225
      2 C           0.0239   -0.0035    0.0023 C.ar    1  UNL1        0.0403
      3 C           0.0232   -0.7852   -1.1040 C.ar    1  UNL1        0.1292
      4 S           0.0121   -0.2206   -2.7731 S.O2    1  UNL1        0.0628
      5 O          -0.5294   -1.2792   -3.5512 O.2     1  UNL1       -0.1528
      6 O          -0.5401    1.0885   -2.7502 O.2     1  UNL1       -0.1528
      7 N           1.5908   -0.0539   -3.2446 N.3     1  UNL1       -0.1765
      8 C           2.4045    1.1620   -3.0999 C.3     1  UNL1        0.0205
      9 C           3.7938    0.8576   -3.6988 C.3     1  UNL1       -0.0373
     10 C           3.5067   -0.3280   -4.6576 C.3     1  UNL1       -0.0373
     11 C           2.4151   -1.1023   -3.8731 C.3     1  UNL1        0.0205
     12 C           0.0335   -2.1197   -0.6864 C.ar    1  UNL1        0.0059
     13 C           0.0370   -3.3363   -1.5757 C.3     1  UNL1       -0.0357
     14 C           0.0404   -2.1126    0.6925 C.ar    1  UNL1        0.1072
     15 C           0.0521   -3.2910    1.5653 C.2     1  UNL1        0.2648
     16 O           0.0566   -4.4073    1.0805 O.2     1  UNL1       -0.2682
     17 N           0.0579   -3.1378    2.9043 N.am    1  UNL1       -0.2803
     18 C          -0.0286   -4.2581    3.7366 C.ar    1  UNL1        0.0337
     19 C          -0.7256   -4.1822    4.9356 C.ar    1  UNL1       -0.0399
     20 C          -0.8095   -5.2907    5.7551 C.ar    1  UNL1       -0.0484
     21 C          -0.2003   -6.4751    5.3833 C.ar    1  UNL1        0.0549
     22 C          -0.2935   -7.6825    6.2802 C.3     1  UNL1        0.4174
     23 F          -1.4261   -8.4299    5.9399 F       1  UNL1       -0.1659
     24 F           0.8509   -8.4713    6.1209 F       1  UNL1       -0.1659
     25 F          -0.3919   -7.2672    7.6125 F       1  UNL1       -0.1659
     26 C           0.4940   -6.5542    4.1899 C.ar    1  UNL1       -0.0484
     27 C           0.5773   -5.4509    3.3634 C.ar    1  UNL1       -0.0399
     28 N           0.0402   -0.7979    1.1004 N.ar    1  UNL1       -0.3528
     29 H           1.0400    1.8731    0.0025 H       1  UNL1        0.0292
     30 H          -0.5103    1.8685   -0.8721 H       1  UNL1        0.0292
     31 H          -0.4925    1.8586    0.9077 H       1  UNL1        0.0292
     32 H           1.9396    1.9857   -3.6417 H       1  UNL1        0.0444
     33 H           2.5036    1.4185   -2.0451 H       1  UNL1        0.0444
     34 H           4.1724    1.7175   -4.2514 H       1  UNL1        0.0278
     35 H           4.4939    0.5612   -2.9177 H       1  UNL1        0.0278
     36 H           3.1265    0.0272   -5.6153 H       1  UNL1        0.0278
     37 H           4.3961   -0.9428   -4.7958 H       1  UNL1        0.0278
     38 H           2.8719   -1.7384   -3.1151 H       1  UNL1        0.0444
     39 H           1.8090   -1.6987   -4.5551 H       1  UNL1        0.0444
     40 H           1.0654   -3.6231   -1.7950 H       1  UNL1        0.0279
     41 H          -0.4693   -4.1580   -1.0693 H       1  UNL1        0.0279
     42 H          -0.4827   -3.1077   -2.5062 H       1  UNL1        0.0279
     43 H           0.1221   -2.2504    3.2906 H       1  UNL1        0.1552
     44 H          -1.2010   -3.2573    5.2269 H       1  UNL1        0.0636
     45 H          -1.3513   -5.2324    6.6876 H       1  UNL1        0.0624
     46 H           0.9684   -7.4807    3.9022 H       1  UNL1        0.0624
     47 H           1.1197   -5.5133    2.4315 H       1  UNL1        0.0636
     48 H           0.0448   -0.4911    2.0206 H       1  UNL1        0.1658
@<TRIPOS>BOND
     1     1     2    1
     2     1    29    1
     3     1    30    1
     4     1    31    1
     5     2    28   ar
     6     2     3   ar
     7     3     4    1
     8     3    12   ar
     9     4     5    2
    10     4     6    2
    11     4     7    1
    12     7    11    1
    13     7     8    1
    14     8     9    1
    15     8    32    1
    16     8    33    1
    17     9    10    1
    18     9    34    1
    19     9    35    1
    20    10    11    1
    21    10    36    1
    22    10    37    1
    23    11    38    1
    24    11    39    1
    25    12    13    1
    26    12    14   ar
    27    13    40    1
    28    13    41    1
    29    13    42    1
    30    14    15    1
    31    14    28   ar
    32    15    16    2
    33    15    17   am
    34    17    18    1
    35    17    43    1
    36    18    27   ar
    37    18    19   ar
    38    19    20   ar
    39    19    44    1
    40    20    21   ar
    41    20    45    1
    42    21    22    1
    43    21    26   ar
    44    22    23    1
    45    22    24    1
    46    22    25    1
    47    26    27   ar
    48    26    46    1
    49    27    47    1
    50    28    48    1
