@<TRIPOS>MOLECULE
ZINC000027338567
 51 51 0 0 0
SMALL
GASTEIGER

@<TRIPOS>ATOM
      1 C          -0.0187    1.5258    0.0104 C.3     1  UNL1       -0.0636
      2 C           0.0021   -0.0041    0.0020 C.3     1  UNL1       -0.0376
      3 C           0.7421   -0.5109    1.2415 C.3     1  UNL1        0.0200
      4 H           1.7350   -0.0630    1.2804 H       1  UNL1        0.0495
      5 C           0.8719   -2.0337    1.1708 C.3     1  UNL1       -0.0466
      6 N          -0.0083   -0.1401    2.4439 N.am    1  UNL1       -0.3127
      7 C           0.6303   -0.0111    3.6237 C.2     1  UNL1        0.2135
      8 O           1.8262   -0.2020    3.6901 O.2     1  UNL1       -0.2758
      9 C          -0.1416    0.3704    4.8606 C.3     1  UNL1        0.0279
     10 C           0.8130    0.4481    6.0537 C.3     1  UNL1       -0.0194
     11 C           0.0411    0.8295    7.2906 C.ar    1  UNL1       -0.0468
     12 C          -0.1200    2.1621    7.6212 C.ar    1  UNL1       -0.0567
     13 C          -0.8280    2.5120    8.7557 C.ar    1  UNL1       -0.0351
     14 C          -1.3753    1.5294    9.5594 C.ar    1  UNL1        0.1055
     15 S          -2.2773    1.9753   11.0058 S.O2    1  UNL1        0.0608
     16 O          -2.2254    0.8513   11.8736 O.2     1  UNL1       -0.1528
     17 O          -1.8214    3.2681   11.3803 O.2     1  UNL1       -0.1528
     18 N          -3.8628    2.1495   10.5605 N.3     1  UNL1       -0.1771
     19 C          -4.7691    0.9997   10.6140 C.3     1  UNL1        0.0177
     20 C          -5.5225    1.0057   11.9456 C.3     1  UNL1       -0.0507
     21 C          -4.3591    3.4532   10.1132 C.3     1  UNL1        0.0177
     22 C          -4.3025    3.5238    8.5859 C.3     1  UNL1       -0.0507
     23 C          -1.2154    0.1969    9.2280 C.ar    1  UNL1       -0.0351
     24 C          -0.5106   -0.1529    8.0914 C.ar    1  UNL1       -0.0567
     25 H           1.0039    1.9031    0.0027 H       1  UNL1        0.0230
     26 H          -0.5459    1.8868   -0.8726 H       1  UNL1        0.0230
     27 H          -0.5289    1.8773    0.9072 H       1  UNL1        0.0230
     28 H          -1.0205   -0.3814    0.0098 H       1  UNL1        0.0280
     29 H           0.5123   -0.3556   -0.8948 H       1  UNL1        0.0280
     30 H          -0.1210   -2.4817    1.1320 H       1  UNL1        0.0247
     31 H           1.4302   -2.3096    0.2763 H       1  UNL1        0.0247
     32 H           1.3991   -2.3948    2.0539 H       1  UNL1        0.0247
     33 H          -0.9647    0.0126    2.3909 H       1  UNL1        0.1490
     34 H          -0.6138    1.3411    4.7092 H       1  UNL1        0.0361
     35 H          -0.9077   -0.3798    5.0565 H       1  UNL1        0.0361
     36 H           1.2852   -0.5226    6.2051 H       1  UNL1        0.0318
     37 H           1.5792    1.1983    5.8578 H       1  UNL1        0.0318
     38 H           0.3076    2.9298    6.9933 H       1  UNL1        0.0621
     39 H          -0.9533    3.5530    9.0144 H       1  UNL1        0.0637
     40 H          -5.4829    1.0612    9.7925 H       1  UNL1        0.0441
     41 H          -4.1930    0.0786   10.5266 H       1  UNL1        0.0441
     42 H          -4.8088    0.9442   12.7671 H       1  UNL1        0.0243
     43 H          -6.0986    1.9268   12.0330 H       1  UNL1        0.0243
     44 H          -6.1969    0.1502   11.9854 H       1  UNL1        0.0243
     45 H          -5.3892    3.5833   10.4450 H       1  UNL1        0.0441
     46 H          -3.7385    4.2430   10.5367 H       1  UNL1        0.0441
     47 H          -4.9230    2.7341    8.1624 H       1  UNL1        0.0243
     48 H          -4.6717    4.4939    8.2530 H       1  UNL1        0.0243
     49 H          -3.2724    3.3938    8.2541 H       1  UNL1        0.0243
     50 H          -1.6433   -0.5708    9.8557 H       1  UNL1        0.0637
     51 H          -0.3856   -1.1939    7.8325 H       1  UNL1        0.0621
@<TRIPOS>BOND
     1     1     2    1
     2     1    25    1
     3     1    26    1
     4     1    27    1
     5     2     3    1
     6     2    28    1
     7     2    29    1
     8     3     4    1
     9     3     5    1
    10     3     6    1
    11     5    30    1
    12     5    31    1
    13     5    32    1
    14     6     7   am
    15     6    33    1
    16     7     8    2
    17     7     9    1
    18     9    10    1
    19     9    34    1
    20     9    35    1
    21    10    11    1
    22    10    36    1
    23    10    37    1
    24    11    24   ar
    25    11    12   ar
    26    12    13   ar
    27    12    38    1
    28    13    14   ar
    29    13    39    1
    30    14    15    1
    31    14    23   ar
    32    15    16    2
    33    15    17    2
    34    15    18    1
    35    18    19    1
    36    18    21    1
    37    19    20    1
    38    19    40    1
    39    19    41    1
    40    20    42    1
    41    20    43    1
    42    20    44    1
    43    21    22    1
    44    21    45    1
    45    21    46    1
    46    22    47    1
    47    22    48    1
    48    22    49    1
    49    23    24   ar
    50    23    50    1
    51    24    51    1
