@<TRIPOS>MOLECULE
ZINC000016651188
 49 50 0 0 0
SMALL
GASTEIGER

@<TRIPOS>ATOM
      1 C          -0.0107    1.5536   -0.0510 C.3     1  UNL1       -0.0507
      2 C           0.0096    0.0239   -0.0714 C.3     1  UNL1        0.0177
      3 N           0.7145   -0.4709    1.1137 N.3     1  UNL1       -0.1771
      4 C          -0.0060   -0.6373    2.3784 C.3     1  UNL1        0.0177
      5 C          -0.6938   -2.0038    2.3975 C.3     1  UNL1       -0.0507
      6 S           2.3258   -0.8422    1.0237 S.O2    1  UNL1        0.0608
      7 O           2.5830   -1.7691    2.0697 O.2     1  UNL1       -0.1528
      8 O           2.5984   -1.1178   -0.3434 O.2     1  UNL1       -0.1528
      9 C           3.2215    0.6213    1.4244 C.ar    1  UNL1        0.1055
     10 C           3.5753    1.5101    0.4266 C.ar    1  UNL1       -0.0351
     11 C           4.2779    2.6583    0.7409 C.ar    1  UNL1       -0.0567
     12 C           4.6265    2.9179    2.0532 C.ar    1  UNL1       -0.0468
     13 C           5.3929    4.1693    2.3958 C.3     1  UNL1       -0.0194
     14 C           4.4103    5.3016    2.7014 C.3     1  UNL1        0.0282
     15 C           5.1768    6.5531    3.0440 C.2     1  UNL1        0.2176
     16 O           6.3896    6.5406    3.0438 O.2     1  UNL1       -0.2755
     17 N           4.5146    7.6861    3.3507 N.am    1  UNL1       -0.2832
     18 C           5.2234    8.8227    3.7595 C.ar    1  UNL1        0.0690
     19 C           6.4726    9.0947    3.2198 C.ar    1  UNL1       -0.0377
     20 C           7.1696   10.2171    3.6247 C.ar    1  UNL1       -0.0598
     21 C           6.6248   11.0693    4.5670 C.ar    1  UNL1       -0.0589
     22 C           5.3801   10.8027    5.1079 C.ar    1  UNL1       -0.0246
     23 C           4.6746    9.6845    4.7032 C.ar    1  UNL1        0.1445
     24 F           3.4586    9.4240    5.2312 F       1  UNL1       -0.2035
     25 C           4.2715    2.0297    3.0512 C.ar    1  UNL1       -0.0567
     26 C           3.5655    0.8834    2.7374 C.ar    1  UNL1       -0.0351
     27 H           1.0120    1.9306   -0.0528 H       1  UNL1        0.0243
     28 H          -0.5352    1.9218   -0.9327 H       1  UNL1        0.0243
     29 H          -0.5234    1.8983    0.8470 H       1  UNL1        0.0243
     30 H          -1.0132   -0.3531   -0.0696 H       1  UNL1        0.0441
     31 H           0.5223   -0.3207   -0.9694 H       1  UNL1        0.0441
     32 H           0.6974   -0.5729    3.2085 H       1  UNL1        0.0441
     33 H          -0.7555    0.1481    2.4755 H       1  UNL1        0.0441
     34 H          -1.2299   -2.1276    3.3385 H       1  UNL1        0.0243
     35 H          -1.3973   -2.0682    1.5674 H       1  UNL1        0.0243
     36 H           0.0557   -2.7892    2.3004 H       1  UNL1        0.0243
     37 H           3.3030    1.3073   -0.5987 H       1  UNL1        0.0637
     38 H           4.5550    3.3524   -0.0388 H       1  UNL1        0.0621
     39 H           6.0179    3.9849    3.2696 H       1  UNL1        0.0318
     40 H           6.0224    4.4523    1.5521 H       1  UNL1        0.0318
     41 H           3.7854    5.4860    1.8276 H       1  UNL1        0.0362
     42 H           3.7809    5.0186    3.5451 H       1  UNL1        0.0362
     43 H           3.5470    7.7145    3.2883 H       1  UNL1        0.1549
     44 H           6.8999    8.4295    2.4841 H       1  UNL1        0.0637
     45 H           8.1417   10.4286    3.2046 H       1  UNL1        0.0618
     46 H           7.1725   11.9453    4.8817 H       1  UNL1        0.0618
     47 H           4.9572   11.4704    5.8439 H       1  UNL1        0.0647
     48 H           4.5435    2.2327    4.0765 H       1  UNL1        0.0621
     49 H           3.2882    0.1895    3.5171 H       1  UNL1        0.0637
@<TRIPOS>BOND
     1     1     2    1
     2     1    27    1
     3     1    28    1
     4     1    29    1
     5     2     3    1
     6     2    30    1
     7     2    31    1
     8     3     4    1
     9     6     3    1
    10     4     5    1
    11     4    32    1
    12     4    33    1
    13     5    34    1
    14     5    35    1
    15     5    36    1
    16     6     7    2
    17     6     8    2
    18     6     9    1
    19     9    26   ar
    20     9    10   ar
    21    10    11   ar
    22    10    37    1
    23    11    12   ar
    24    11    38    1
    25    12    13    1
    26    12    25   ar
    27    13    14    1
    28    13    39    1
    29    13    40    1
    30    14    15    1
    31    14    41    1
    32    14    42    1
    33    15    16    2
    34    15    17   am
    35    17    18    1
    36    17    43    1
    37    18    23   ar
    38    18    19   ar
    39    19    20   ar
    40    19    44    1
    41    20    21   ar
    42    20    45    1
    43    21    22   ar
    44    21    46    1
    45    22    23   ar
    46    22    47    1
    47    23    24    1
    48    25    26   ar
    49    25    48    1
    50    26    49    1
