@<TRIPOS>MOLECULE
ZINC000016647544
 49 50 0 0 0
SMALL
GASTEIGER

@<TRIPOS>ATOM
      1 C          -0.0178    1.4608    0.0101 C.3     1  UNL1        0.0086
      2 N           0.0021   -0.0041    0.0020 N.3     1  UNL1       -0.1827
      3 C           0.0241   -0.7433    1.2666 C.3     1  UNL1        0.0086
      4 S          -0.0004   -0.8243   -1.4366 S.O2    1  UNL1        0.0604
      5 O          -0.5247   -2.1160   -1.1611 O.2     1  UNL1       -0.1529
      6 O          -0.5660    0.0551   -2.3989 O.2     1  UNL1       -0.1529
      7 C           1.6816   -1.0597   -1.9056 C.ar    1  UNL1        0.1055
      8 C           2.3234   -0.1095   -2.6777 C.ar    1  UNL1       -0.0351
      9 C           3.6430   -0.2942   -3.0457 C.ar    1  UNL1       -0.0567
     10 C           4.3210   -1.4289   -2.6412 C.ar    1  UNL1       -0.0468
     11 C           5.7594   -1.6304   -3.0428 C.3     1  UNL1       -0.0194
     12 C           6.6758   -1.0157   -1.9829 C.3     1  UNL1        0.0279
     13 C           8.1142   -1.2173   -2.3845 C.2     1  UNL1        0.2135
     14 O           8.3803   -1.7957   -3.4168 O.2     1  UNL1       -0.2758
     15 N           9.1050   -0.7549   -1.5965 N.am    1  UNL1       -0.3124
     16 C          10.5034   -0.9508   -1.9869 C.3     1  UNL1        0.0231
     17 C          10.9308    0.1725   -2.9337 C.3     1  UNL1       -0.0345
     18 C          12.3912   -0.0321   -3.3414 C.3     1  UNL1       -0.0514
     19 C          13.2766   -0.0122   -2.0937 C.3     1  UNL1       -0.0529
     20 C          12.8492   -1.1355   -1.1470 C.3     1  UNL1       -0.0514
     21 C          11.3888   -0.9308   -0.7393 C.3     1  UNL1       -0.0345
     22 C           3.6797   -2.3784   -1.8680 C.ar    1  UNL1       -0.0567
     23 C           2.3612   -2.1919   -1.4968 C.ar    1  UNL1       -0.0351
     24 H           1.0048    1.8381    0.0023 H       1  UNL1        0.0408
     25 H          -0.5450    1.8219   -0.8730 H       1  UNL1        0.0408
     26 H          -0.5280    1.8123    0.9069 H       1  UNL1        0.0408
     27 H          -0.9979   -0.9406    1.5900 H       1  UNL1        0.0408
     28 H           0.5496   -1.6879    1.1262 H       1  UNL1        0.0408
     29 H           0.5371   -0.1514    2.0246 H       1  UNL1        0.0408
     30 H           1.7936    0.7771   -2.9938 H       1  UNL1        0.0637
     31 H           4.1441    0.4479   -3.6495 H       1  UNL1        0.0621
     32 H           5.9668   -2.6971   -3.1279 H       1  UNL1        0.0318
     33 H           5.9396   -1.1475   -4.0032 H       1  UNL1        0.0318
     34 H           6.4684    0.0510   -1.8978 H       1  UNL1        0.0361
     35 H           6.4956   -1.4987   -1.0225 H       1  UNL1        0.0361
     36 H           8.8922   -0.2923   -0.7709 H       1  UNL1        0.1490
     37 H          10.6085   -1.9111   -2.4917 H       1  UNL1        0.0498
     38 H          10.3000    0.1583   -3.8225 H       1  UNL1        0.0283
     39 H          10.8257    1.1328   -2.4288 H       1  UNL1        0.0283
     40 H          12.4964   -0.9925   -3.8462 H       1  UNL1        0.0266
     41 H          12.6957    0.7681   -4.0158 H       1  UNL1        0.0266
     42 H          14.3170   -0.1580   -2.3842 H       1  UNL1        0.0265
     43 H          13.1715    0.9482   -1.5889 H       1  UNL1        0.0265
     44 H          12.9543   -2.0958   -1.6518 H       1  UNL1        0.0266
     45 H          13.4800   -1.1213   -0.2582 H       1  UNL1        0.0266
     46 H          11.2837    0.0295   -0.2345 H       1  UNL1        0.0283
     47 H          11.0843   -1.7311   -0.0648 H       1  UNL1        0.0283
     48 H           4.2095   -3.2648   -1.5516 H       1  UNL1        0.0621
     49 H           1.8602   -2.9338   -0.8927 H       1  UNL1        0.0637
@<TRIPOS>BOND
     1     1     2    1
     2     1    24    1
     3     1    25    1
     4     1    26    1
     5     2     3    1
     6     4     2    1
     7     3    27    1
     8     3    28    1
     9     3    29    1
    10     4     5    2
    11     4     6    2
    12     4     7    1
    13     7    23   ar
    14     7     8   ar
    15     8     9   ar
    16     8    30    1
    17     9    10   ar
    18     9    31    1
    19    10    11    1
    20    10    22   ar
    21    11    12    1
    22    11    32    1
    23    11    33    1
    24    12    13    1
    25    12    34    1
    26    12    35    1
    27    13    14    2
    28    13    15   am
    29    15    16    1
    30    15    36    1
    31    16    21    1
    32    16    17    1
    33    16    37    1
    34    17    18    1
    35    17    38    1
    36    17    39    1
    37    18    19    1
    38    18    40    1
    39    18    41    1
    40    19    20    1
    41    19    42    1
    42    19    43    1
    43    20    21    1
    44    20    44    1
    45    20    45    1
    46    21    46    1
    47    21    47    1
    48    22    23   ar
    49    22    48    1
    50    23    49    1
