@<TRIPOS>MOLECULE
ZINC000045944819
 65 66 0 0 0
SMALL
GASTEIGER

@<TRIPOS>ATOM
      1 C          -0.0173    1.4248    0.0099 C.3     1  UNL1        0.0364
      2 O           0.0021   -0.0041    0.0020 O.3     1  UNL1       -0.3829
      3 C           0.6518   -0.5703   -1.1379 C.3     1  UNL1        0.0485
      4 C           0.6131   -2.0967   -1.0411 C.3     1  UNL1       -0.0150
      5 C           1.3087   -2.7029   -2.2615 C.3     1  UNL1        0.0226
      6 N           1.2717   -4.1645   -2.1688 N.3     1  UNL1       -0.1761
      7 C           0.0984   -4.8994   -2.6480 C.3     1  UNL1        0.0288
      8 C           0.2296   -5.1446   -4.1525 C.3     1  UNL1        0.0385
      9 C          -0.9774   -5.9005   -4.6454 C.2     1  UNL1        0.2172
     10 O          -1.8560   -6.2124   -3.8697 O.2     1  UNL1       -0.2756
     11 N          -1.0804   -6.2299   -5.9482 N.am    1  UNL1       -0.2913
     12 C          -0.0242   -5.8674   -6.9059 C.3     1  UNL1        0.0549
     13 C           0.3626   -7.1198   -7.6994 C.3     1  UNL1       -0.0174
     14 N          -0.8388   -7.6998   -8.3129 N.4     1  UNL1        0.2292
     15 H          -1.2973   -7.0008   -8.8779 H       1  UNL1        0.2015
     16 H          -0.5743   -8.4804   -8.8950 H       1  UNL1        0.2015
     17 C          -1.7600   -8.1633   -7.2677 C.3     1  UNL1       -0.0174
     18 C          -2.2494   -6.9675   -6.4517 C.3     1  UNL1        0.0549
     19 S           2.5560   -4.9861   -1.5224 S.O2    1  UNL1        0.0609
     20 O           2.4962   -6.3039   -2.0504 O.2     1  UNL1       -0.1528
     21 O           3.6885   -4.1404   -1.6697 O.2     1  UNL1       -0.1528
     22 C           2.2647   -5.1302    0.2094 C.ar    1  UNL1        0.1055
     23 C           2.7166   -4.1477    1.0704 C.ar    1  UNL1       -0.0351
     24 C           2.4880   -4.2608    2.4290 C.ar    1  UNL1       -0.0567
     25 C           1.8072   -5.3562    2.9266 C.ar    1  UNL1       -0.0470
     26 C           1.5585   -5.4798    4.4078 C.3     1  UNL1       -0.0253
     27 C           0.2262   -4.8143    4.7584 C.3     1  UNL1       -0.0427
     28 C          -0.9177   -5.5800    4.0907 C.3     1  UNL1       -0.0624
     29 C           0.0325   -4.8293    6.2761 C.3     1  UNL1       -0.0624
     30 C           1.3542   -6.3381    2.0654 C.ar    1  UNL1       -0.0567
     31 C           1.5794   -6.2231    0.7064 C.ar    1  UNL1       -0.0351
     32 H           1.0053    1.8021    0.0021 H       1  UNL1        0.0523
     33 H          -0.5445    1.7859   -0.8732 H       1  UNL1        0.0523
     34 H          -0.5275    1.7763    0.9067 H       1  UNL1        0.0523
     35 H           0.1385   -0.2506   -2.0447 H       1  UNL1        0.0560
     36 H           1.6883   -0.2344   -1.1694 H       1  UNL1        0.0560
     37 H           1.1264   -2.4164   -0.1342 H       1  UNL1        0.0300
     38 H          -0.4234   -2.4326   -1.0095 H       1  UNL1        0.0300
     39 H           0.7954   -2.3833   -3.1684 H       1  UNL1        0.0445
     40 H           2.3452   -2.3671   -2.2930 H       1  UNL1        0.0445
     41 H           0.0313   -5.8553   -2.1285 H       1  UNL1        0.0448
     42 H          -0.8010   -4.3155   -2.4521 H       1  UNL1        0.0448
     43 H           0.2967   -4.1887   -4.6719 H       1  UNL1        0.0371
     44 H           1.1289   -5.7284   -4.3484 H       1  UNL1        0.0371
     45 H          -0.3948   -5.1019   -7.5875 H       1  UNL1        0.0517
     46 H           0.8457   -5.4921   -6.3670 H       1  UNL1        0.0517
     47 H           1.0750   -6.8504   -8.4792 H       1  UNL1        0.0829
     48 H           0.8165   -7.8493   -7.0286 H       1  UNL1        0.0829
     49 H          -2.6118   -8.6628   -7.7293 H       1  UNL1        0.0829
     50 H          -1.2420   -8.8612   -6.6100 H       1  UNL1        0.0829
     51 H          -2.8521   -7.3179   -5.6138 H       1  UNL1        0.0517
     52 H          -2.8449   -6.3106   -7.0857 H       1  UNL1        0.0517
     53 H           3.2484   -3.2919    0.6817 H       1  UNL1        0.0637
     54 H           2.8416   -3.4936    3.1018 H       1  UNL1        0.0621
     55 H           1.5218   -6.5337    4.6834 H       1  UNL1        0.0316
     56 H           2.3644   -4.9893    4.9537 H       1  UNL1        0.0316
     57 H           0.2300   -3.7839    4.4028 H       1  UNL1        0.0299
     58 H          -0.9216   -6.6104    4.4463 H       1  UNL1        0.0232
     59 H          -1.8669   -5.1059    4.3405 H       1  UNL1        0.0232
     60 H          -0.7797   -5.5693    3.0095 H       1  UNL1        0.0232
     61 H           0.8474   -4.2838    6.7518 H       1  UNL1        0.0232
     62 H          -0.9167   -4.3552    6.5259 H       1  UNL1        0.0232
     63 H           0.0286   -5.8597    6.6317 H       1  UNL1        0.0232
     64 H           0.8220   -7.1937    2.4540 H       1  UNL1        0.0621
     65 H           1.2254   -6.9901    0.0335 H       1  UNL1        0.0637
@<TRIPOS>UNITY_ATOM_ATTR
14 1
charge 1
@<TRIPOS>BOND
     1     1     2    1
     2     1    32    1
     3     1    33    1
     4     1    34    1
     5     2     3    1
     6     3     4    1
     7     3    35    1
     8     3    36    1
     9     4     5    1
    10     4    37    1
    11     4    38    1
    12     5     6    1
    13     5    39    1
    14     5    40    1
    15     6     7    1
    16    19     6    1
    17     7     8    1
    18     7    41    1
    19     7    42    1
    20     8     9    1
    21     8    43    1
    22     8    44    1
    23     9    10    2
    24     9    11   am
    25    11    18    1
    26    11    12    1
    27    12    13    1
    28    12    45    1
    29    12    46    1
    30    13    14    1
    31    13    47    1
    32    13    48    1
    33    14    15    1
    34    14    16    1
    35    14    17    1
    36    17    18    1
    37    17    49    1
    38    17    50    1
    39    18    51    1
    40    18    52    1
    41    19    20    2
    42    19    21    2
    43    19    22    1
    44    22    31   ar
    45    22    23   ar
    46    23    24   ar
    47    23    53    1
    48    24    25   ar
    49    24    54    1
    50    25    26    1
    51    25    30   ar
    52    26    27    1
    53    26    55    1
    54    26    56    1
    55    27    28    1
    56    27    29    1
    57    27    57    1
    58    28    58    1
    59    28    59    1
    60    28    60    1
    61    29    61    1
    62    29    62    1
    63    29    63    1
    64    30    31   ar
    65    30    64    1
    66    31    65    1
