@<TRIPOS>MOLECULE
ZINC000026535279
 46 48 0 0 0
SMALL
GASTEIGER

@<TRIPOS>ATOM
      1 N          -3.2470    1.1924    2.2217 N.am    1  UNL1       -0.3291
      2 C          -3.1393   -0.1500    2.1686 C.2     1  UNL1        0.2137
      3 O          -2.4864   -0.7395    3.0036 O.2     1  UNL1       -0.2757
      4 C          -3.8300   -0.9185    1.0716 C.3     1  UNL1        0.0382
      5 C          -3.3053   -0.4499   -0.2875 C.3     1  UNL1       -0.0260
      6 C          -4.0343   -1.2085   -1.4010 C.3     1  UNL1        0.0157
      7 N          -3.8900   -2.6512   -1.1632 N.am    1  UNL1       -0.2975
      8 C          -3.4082   -3.4612   -2.1267 C.2     1  UNL1        0.2472
      9 O          -3.1767   -3.0172   -3.2346 O.2     1  UNL1       -0.2700
     10 C          -3.1614   -4.8875   -1.8368 C.ar    1  UNL1        0.0446
     11 C          -2.3729   -5.2560   -0.7470 C.ar    1  UNL1       -0.0490
     12 C          -2.1455   -6.5906   -0.4807 C.ar    1  UNL1       -0.0610
     13 C          -2.6956   -7.5704   -1.2900 C.ar    1  UNL1       -0.0611
     14 C          -3.4789   -7.2243   -2.3732 C.ar    1  UNL1       -0.0533
     15 C          -3.7249   -5.8837   -2.6545 C.ar    1  UNL1       -0.0058
     16 C          -4.5649   -5.5078   -3.8160 C.ar    1  UNL1       -0.0171
     17 C          -5.6473   -4.6452   -3.6469 C.ar    1  UNL1       -0.0535
     18 C          -6.4259   -4.2987   -4.7322 C.ar    1  UNL1       -0.0495
     19 C          -6.1344   -4.8054   -5.9860 C.ar    1  UNL1        0.0548
     20 C          -6.9887   -4.4231   -7.1672 C.3     1  UNL1        0.4174
     21 F          -6.4667   -3.2721   -7.7672 F       1  UNL1       -0.1659
     22 F          -6.9969   -5.4700   -8.0951 F       1  UNL1       -0.1659
     23 F          -8.2957   -4.1722   -6.7357 F       1  UNL1       -0.1659
     24 C          -5.0616   -5.6613   -6.1600 C.ar    1  UNL1       -0.0495
     25 C          -4.2726   -6.0107   -5.0832 C.ar    1  UNL1       -0.0535
     26 C          -4.2804   -3.1941    0.1451 C.3     1  UNL1        0.0157
     27 C          -3.5486   -2.4132    1.2412 C.3     1  UNL1       -0.0260
     28 H          -2.8024    1.6871    2.9278 H       1  UNL1        0.1449
     29 H          -3.7658    1.6642    1.5516 H       1  UNL1        0.1449
     30 H          -4.9043   -0.7428    1.1261 H       1  UNL1        0.0395
     31 H          -3.4850    0.6195   -0.3979 H       1  UNL1        0.0288
     32 H          -2.2354   -0.6481   -0.3524 H       1  UNL1        0.0288
     33 H          -5.0909   -0.9410   -1.3942 H       1  UNL1        0.0465
     34 H          -3.5963   -0.9516   -2.3655 H       1  UNL1        0.0465
     35 H          -1.9401   -4.4971   -0.1121 H       1  UNL1        0.0625
     36 H          -1.5344   -6.8728    0.3639 H       1  UNL1        0.0618
     37 H          -2.5106   -8.6120   -1.0727 H       1  UNL1        0.0618
     38 H          -3.9044   -7.9943   -2.9996 H       1  UNL1        0.0624
     39 H          -5.8760   -4.2493   -2.6685 H       1  UNL1        0.0624
     40 H          -7.2648   -3.6309   -4.6025 H       1  UNL1        0.0623
     41 H          -4.8389   -6.0537   -7.1412 H       1  UNL1        0.0623
     42 H          -3.4351   -6.6787   -5.2202 H       1  UNL1        0.0624
     43 H          -5.3571   -3.0885    0.2780 H       1  UNL1        0.0465
     44 H          -4.0048   -4.2472    0.2007 H       1  UNL1        0.0465
     45 H          -2.4765   -2.5929    1.1619 H       1  UNL1        0.0288
     46 H          -3.9016   -2.7412    2.2189 H       1  UNL1        0.0288
@<TRIPOS>BOND
     1     1     2   am
     2     1    28    1
     3     1    29    1
     4     2     3    2
     5     2     4    1
     6     4    27    1
     7     4     5    1
     8     4    30    1
     9     5     6    1
    10     5    31    1
    11     5    32    1
    12     6     7    1
    13     6    33    1
    14     6    34    1
    15     7     8   am
    16     7    26    1
    17     8     9    2
    18     8    10    1
    19    10    15   ar
    20    10    11   ar
    21    11    12   ar
    22    11    35    1
    23    12    13   ar
    24    12    36    1
    25    13    14   ar
    26    13    37    1
    27    14    15   ar
    28    14    38    1
    29    15    16    1
    30    16    25   ar
    31    16    17   ar
    32    17    18   ar
    33    17    39    1
    34    18    19   ar
    35    18    40    1
    36    19    20    1
    37    19    24   ar
    38    20    21    1
    39    20    22    1
    40    20    23    1
    41    24    25   ar
    42    24    41    1
    43    25    42    1
    44    26    27    1
    45    26    43    1
    46    26    44    1
    47    27    45    1
    48    27    46    1
