@<TRIPOS>MOLECULE
ZINC000012622968
 40 41 0 0 0
SMALL
GASTEIGER

@<TRIPOS>ATOM
      1 C           1.0675   -2.1418   -3.0210 C.3     1  UNL1        0.0817
      2 O           0.5969   -1.9864   -1.6562 O.3     1  UNL1       -0.4679
      3 C          -0.7121   -2.1863   -1.4365 C.2     1  UNL1        0.3089
      4 O          -1.4236   -2.5705   -2.3342 O.2     1  UNL1       -0.2508
      5 C          -1.2943   -1.9315   -0.0700 C.3     1  UNL1        0.0705
      6 C          -2.7501   -2.4011   -0.0403 C.3     1  UNL1        0.1178
      7 H          -3.2949   -1.9540   -0.8719 H       1  UNL1        0.0581
      8 C          -2.7984   -3.9004   -0.1542 C.2     1  UNL1        0.2325
      9 O          -2.5498   -4.4073   -1.2276 O.2     1  UNL1       -0.2740
     10 N          -3.1025   -4.6978    0.8709 N.am    1  UNL1       -0.3127
     11 C          -3.5088   -4.2310    2.1893 C.3     1  UNL1        0.0261
     12 C          -3.0381   -2.7946    2.4253 C.3     1  UNL1        0.0369
     13 N          -3.3720   -1.9974    1.2296 N.3     1  UNL1       -0.1627
     14 S          -4.4032   -0.7046    1.3164 S.O2    1  UNL1        0.0616
     15 O          -5.0193   -0.5964    0.0405 O.2     1  UNL1       -0.1528
     16 O          -5.1372   -0.8571    2.5235 O.2     1  UNL1       -0.1528
     17 C          -3.4135    0.7396    1.5150 C.ar    1  UNL1        0.1055
     18 C          -2.9894    1.1190    2.7748 C.ar    1  UNL1       -0.0348
     19 C          -2.2129    2.2520    2.9307 C.ar    1  UNL1       -0.0483
     20 C          -1.8602    3.0054    1.8266 C.ar    1  UNL1        0.0549
     21 C          -1.0141    4.2408    1.9966 C.3     1  UNL1        0.4174
     22 F           0.3385    3.8964    1.9018 F       1  UNL1       -0.1659
     23 F          -1.3314    5.1647    0.9951 F       1  UNL1       -0.1659
     24 F          -1.2640    4.8083    3.2507 F       1  UNL1       -0.1659
     25 C          -2.2831    2.6252    0.5667 C.ar    1  UNL1       -0.0483
     26 C          -3.0564    1.4901    0.4104 C.ar    1  UNL1       -0.0348
     27 H           2.1210   -1.8675   -3.0755 H       1  UNL1        0.0661
     28 H           0.9458   -3.1796   -3.3313 H       1  UNL1        0.0661
     29 H           0.4890   -1.4951   -3.6807 H       1  UNL1        0.0661
     30 H          -0.7204   -2.4795    0.6773 H       1  UNL1        0.0398
     31 H          -1.2520   -0.8648    0.1498 H       1  UNL1        0.0398
     32 H          -3.0489   -5.6558    0.7283 H       1  UNL1        0.1488
     33 H          -4.5955   -4.2694    2.2643 H       1  UNL1        0.0475
     34 H          -3.0743   -4.8804    2.9494 H       1  UNL1        0.0475
     35 H          -3.5455   -2.3797    3.2962 H       1  UNL1        0.0459
     36 H          -1.9602   -2.7826    2.5865 H       1  UNL1        0.0459
     37 H          -3.2650    0.5304    3.6374 H       1  UNL1        0.0637
     38 H          -1.8822    2.5488    3.9150 H       1  UNL1        0.0624
     39 H          -2.0072    3.2136   -0.2959 H       1  UNL1        0.0624
     40 H          -3.3868    1.1931   -0.5740 H       1  UNL1        0.0637
@<TRIPOS>BOND
     1     1     2    1
     2     1    27    1
     3     1    28    1
     4     1    29    1
     5     2     3    1
     6     3     4    2
     7     3     5    1
     8     5     6    1
     9     5    30    1
    10     5    31    1
    11     6     7    1
    12     6    13    1
    13     6     8    1
    14     8     9    2
    15     8    10   am
    16    10    11    1
    17    10    32    1
    18    11    12    1
    19    11    33    1
    20    11    34    1
    21    12    13    1
    22    12    35    1
    23    12    36    1
    24    14    13    1
    25    14    15    2
    26    14    16    2
    27    14    17    1
    28    17    26   ar
    29    17    18   ar
    30    18    19   ar
    31    18    37    1
    32    19    20   ar
    33    19    38    1
    34    20    21    1
    35    20    25   ar
    36    21    22    1
    37    21    23    1
    38    21    24    1
    39    25    26   ar
    40    25    39    1
    41    26    40    1
