@<TRIPOS>MOLECULE
ZINC000003024932
 53 55 0 0 0
SMALL
GASTEIGER

@<TRIPOS>ATOM
      1 C          -0.0263    1.5450   -0.0283 C.3     1  UNL1       -0.0612
      2 C          -0.0091    0.0151   -0.0317 C.3     1  UNL1       -0.0292
      3 H           0.5055   -0.3409   -0.9242 H       1  UNL1        0.0311
      4 C          -1.4458   -0.5119   -0.0261 C.3     1  UNL1       -0.0454
      5 C          -1.4300   -2.0418   -0.0627 C.3     1  UNL1       -0.0292
      6 H          -0.9018   -2.3789   -0.9546 H       1  UNL1        0.0311
      7 C          -2.8668   -2.5668   -0.0909 C.3     1  UNL1       -0.0612
      8 C          -0.7160   -2.5710    1.1851 C.3     1  UNL1        0.0231
      9 N           0.6158   -1.9555    1.2647 N.3     1  UNL1       -0.1761
     10 S           1.9723   -2.8947    1.4061 S.O2    1  UNL1        0.0609
     11 O           2.9692   -2.0732    1.9983 O.2     1  UNL1       -0.1528
     12 O           1.5486   -4.1296    1.9673 O.2     1  UNL1       -0.1528
     13 C           2.5296   -3.2552   -0.2261 C.ar    1  UNL1        0.1064
     14 C           2.0615   -4.3805   -0.8821 C.ar    1  UNL1       -0.0326
     15 C           2.4929   -4.6725   -2.1626 C.ar    1  UNL1       -0.0238
     16 C           3.3966   -3.8402   -2.7970 C.ar    1  UNL1        0.1356
     17 F           3.8180   -4.1257   -4.0485 F       1  UNL1       -0.2047
     18 C           3.8726   -2.7014   -2.1390 C.ar    1  UNL1        0.0740
     19 C           4.8379   -1.8066   -2.8084 C.2     1  UNL1        0.2511
     20 O           5.2209   -2.0589   -3.9344 O.2     1  UNL1       -0.2698
     21 N           5.2943   -0.7102   -2.1712 N.am    1  UNL1       -0.2814
     22 C           6.2805    0.0839   -2.7650 C.ar    1  UNL1        0.0337
     23 C           7.2486    0.6952   -1.9789 C.ar    1  UNL1       -0.0399
     24 C           8.2213    1.4785   -2.5685 C.ar    1  UNL1       -0.0484
     25 C           8.2318    1.6548   -3.9400 C.ar    1  UNL1        0.0549
     26 C           9.2947    2.5102   -4.5800 C.3     1  UNL1        0.4174
     27 F          10.3980    1.7151   -4.9084 F       1  UNL1       -0.1659
     28 F           8.7827    3.0996   -5.7408 F       1  UNL1       -0.1659
     29 F           9.6903    3.5099   -3.6849 F       1  UNL1       -0.1659
     30 C           7.2693    1.0476   -4.7256 C.ar    1  UNL1       -0.0484
     31 C           6.2972    0.2584   -4.1428 C.ar    1  UNL1       -0.0399
     32 C           3.4265   -2.4122   -0.8478 C.ar    1  UNL1       -0.0204
     33 C           0.7218   -0.4908    1.2160 C.3     1  UNL1        0.0231
     34 H           0.9972    1.9199   -0.0311 H       1  UNL1        0.0233
     35 H          -0.5474    1.9045   -0.9156 H       1  UNL1        0.0233
     36 H          -0.5410    1.9006    0.8644 H       1  UNL1        0.0233
     37 H          -1.9525   -0.1755    0.8785 H       1  UNL1        0.0271
     38 H          -1.9750   -0.1332   -0.9006 H       1  UNL1        0.0271
     39 H          -3.3748   -2.1877   -0.9777 H       1  UNL1        0.0233
     40 H          -2.8550   -3.6564   -0.1170 H       1  UNL1        0.0233
     41 H          -3.3942   -2.2304    0.8017 H       1  UNL1        0.0233
     42 H          -1.2920   -2.3117    2.0734 H       1  UNL1        0.0446
     43 H          -0.6144   -3.6541    1.1162 H       1  UNL1        0.0446
     44 H           1.3558   -5.0341   -0.3908 H       1  UNL1        0.0638
     45 H           2.1236   -5.5525   -2.6683 H       1  UNL1        0.0647
     46 H           4.9389   -0.4720   -1.3007 H       1  UNL1        0.1551
     47 H           7.2406    0.5585   -0.9076 H       1  UNL1        0.0636
     48 H           8.9744    1.9541   -1.9577 H       1  UNL1        0.0624
     49 H           7.2803    1.1873   -5.7965 H       1  UNL1        0.0624
     50 H           5.5460   -0.2158   -4.7570 H       1  UNL1        0.0636
     51 H           3.7898   -1.5346   -0.3338 H       1  UNL1        0.0645
     52 H           1.7717   -0.2018    1.1678 H       1  UNL1        0.0446
     53 H           0.2629   -0.0614    2.1066 H       1  UNL1        0.0446
@<TRIPOS>BOND
     1     1     2    1
     2     1    34    1
     3     1    35    1
     4     1    36    1
     5     2     3    1
     6     2    33    1
     7     2     4    1
     8     4     5    1
     9     4    37    1
    10     4    38    1
    11     5     6    1
    12     5     7    1
    13     5     8    1
    14     7    39    1
    15     7    40    1
    16     7    41    1
    17     8     9    1
    18     8    42    1
    19     8    43    1
    20    10     9    1
    21     9    33    1
    22    10    11    2
    23    10    12    2
    24    10    13    1
    25    13    32   ar
    26    13    14   ar
    27    14    15   ar
    28    14    44    1
    29    15    16   ar
    30    15    45    1
    31    16    17    1
    32    16    18   ar
    33    18    19    1
    34    18    32   ar
    35    19    20    2
    36    19    21   am
    37    21    22    1
    38    21    46    1
    39    22    31   ar
    40    22    23   ar
    41    23    24   ar
    42    23    47    1
    43    24    25   ar
    44    24    48    1
    45    25    26    1
    46    25    30   ar
    47    26    27    1
    48    26    28    1
    49    26    29    1
    50    30    31   ar
    51    30    49    1
    52    31    50    1
    53    32    51    1
    54    33    52    1
    55    33    53    1
