@<TRIPOS>MOLECULE
ZINC000012922352
 64 66 0 0 0
SMALL
GASTEIGER

@<TRIPOS>ATOM
      1 C           6.1262   -4.6277    4.9968 C.3     1  UNL1       -0.0613
      2 C           6.0065   -3.1209    5.2333 C.3     1  UNL1       -0.0305
      3 C           4.7249   -2.6166    4.6215 C.ar    1  UNL1       -0.0459
      4 C           4.7102   -2.1834    3.3086 C.ar    1  UNL1       -0.0585
      5 C           3.5362   -1.7194    2.7435 C.ar    1  UNL1       -0.0597
      6 C           2.3745   -1.6879    3.4894 C.ar    1  UNL1       -0.0403
      7 C           2.3859   -2.1228    4.8084 C.ar    1  UNL1        0.0365
      8 N           1.2103   -2.0926    5.5668 N.am    1  UNL1       -0.2706
      9 C           1.0886   -2.6293    6.9273 C.3     1  UNL1        0.0313
     10 C          -0.1984   -1.9998    7.5051 C.3     1  UNL1        0.0602
     11 H          -0.7280   -2.7090    8.1411 H       1  UNL1        0.0414
     12 C           0.1126   -0.7320    8.2582 C.2     1  UNL1        0.2224
     13 O           1.2579   -0.3416    8.3418 O.2     1  UNL1       -0.2751
     14 N          -0.8820   -0.0320    8.8390 N.am    1  UNL1       -0.2823
     15 C          -0.6112    1.2063    9.4361 C.ar    1  UNL1        0.0774
     16 C           0.3591    2.0395    8.8998 C.ar    1  UNL1       -0.0105
     17 C           0.6246    3.2607    9.4907 C.ar    1  UNL1        0.1075
     18 S           1.8578    4.3178    8.8078 S.O2    1  UNL1        0.0609
     19 O           2.2883    5.1662    9.8634 O.2     1  UNL1       -0.1528
     20 O           2.7412    3.4816    8.0733 O.2     1  UNL1       -0.1528
     21 N           1.1080    5.2937    7.6998 N.3     1  UNL1       -0.1771
     22 C           0.5464    6.5805    8.1183 C.3     1  UNL1        0.0177
     23 C           1.5676    7.6904    7.8611 C.3     1  UNL1       -0.0507
     24 C           1.0062    4.8703    6.3010 C.3     1  UNL1        0.0177
     25 C          -0.3445    4.1893    6.0713 C.3     1  UNL1       -0.0507
     26 C          -0.0754    3.6547   10.6158 C.ar    1  UNL1       -0.0318
     27 C          -1.0440    2.8291   11.1565 C.ar    1  UNL1       -0.0163
     28 C          -1.3200    1.6064   10.5670 C.ar    1  UNL1        0.1413
     29 O          -2.2725    0.7937   11.0973 O.3     1  UNL1       -0.4933
     30 C          -2.9503    1.2639   12.2641 C.3     1  UNL1        0.0789
     31 C          -1.0055   -1.6979    6.2212 C.3     1  UNL1        0.0370
     32 C           0.0491   -1.5631    5.1450 C.2     1  UNL1        0.2206
     33 O          -0.1293   -1.0575    4.0571 O.2     1  UNL1       -0.2752
     34 C           3.5650   -2.5929    5.3712 C.ar    1  UNL1       -0.0371
     35 H           6.1316   -4.8280    3.9254 H       1  UNL1        0.0233
     36 H           7.0531   -4.9925    5.4393 H       1  UNL1        0.0233
     37 H           5.2790   -5.1362    5.4572 H       1  UNL1        0.0233
     38 H           6.0010   -2.9206    6.3048 H       1  UNL1        0.0311
     39 H           6.8536   -2.6124    4.7730 H       1  UNL1        0.0311
     40 H           5.6174   -2.2070    2.7231 H       1  UNL1        0.0620
     41 H           3.5281   -1.3811    1.7179 H       1  UNL1        0.0618
     42 H           1.4581   -1.3252    3.0477 H       1  UNL1        0.0636
     43 H           0.9969   -3.7151    6.8977 H       1  UNL1        0.0476
     44 H           1.9520   -2.3392    7.5260 H       1  UNL1        0.0476
     45 H          -1.7853   -0.3855    8.8435 H       1  UNL1        0.1549
     46 H           0.9075    1.7341    8.0209 H       1  UNL1        0.0657
     47 H          -0.3612    6.7830    7.5498 H       1  UNL1        0.0441
     48 H           0.3089    6.5447    9.1815 H       1  UNL1        0.0441
     49 H           1.8052    7.7263    6.7979 H       1  UNL1        0.0243
     50 H           1.1498    8.6478    8.1725 H       1  UNL1        0.0243
     51 H           2.4753    7.4879    8.4296 H       1  UNL1        0.0243
     52 H           1.0892    5.7412    5.6508 H       1  UNL1        0.0441
     53 H           1.8097    4.1696    6.0741 H       1  UNL1        0.0441
     54 H          -0.4202    3.8742    5.0306 H       1  UNL1        0.0243
     55 H          -0.4275    3.3184    6.7215 H       1  UNL1        0.0243
     56 H          -1.1480    4.8900    6.2982 H       1  UNL1        0.0243
     57 H           0.1351    4.6098   11.0739 H       1  UNL1        0.0638
     58 H          -1.5888    3.1398   12.0357 H       1  UNL1        0.0655
     59 H          -2.2272    1.4278   13.0631 H       1  UNL1        0.0660
     60 H          -3.4585    2.2009   12.0362 H       1  UNL1        0.0660
     61 H          -3.6822    0.5218   12.5830 H       1  UNL1        0.0660
     62 H          -1.6841   -2.5203    5.9949 H       1  UNL1        0.0366
     63 H          -1.5583   -0.7646    6.3288 H       1  UNL1        0.0366
     64 H           3.5771   -2.9318    6.3966 H       1  UNL1        0.0639
@<TRIPOS>BOND
     1     1     2    1
     2     1    35    1
     3     1    36    1
     4     1    37    1
     5     2     3    1
     6     2    38    1
     7     2    39    1
     8     3    34   ar
     9     3     4   ar
    10     4     5   ar
    11     4    40    1
    12     5     6   ar
    13     5    41    1
    14     6     7   ar
    15     6    42    1
    16     7     8    1
    17     7    34   ar
    18     8    32   am
    19     8     9    1
    20     9    10    1
    21     9    43    1
    22     9    44    1
    23    10    11    1
    24    10    12    1
    25    10    31    1
    26    12    13    2
    27    12    14   am
    28    14    15    1
    29    14    45    1
    30    15    28   ar
    31    15    16   ar
    32    16    17   ar
    33    16    46    1
    34    17    18    1
    35    17    26   ar
    36    18    19    2
    37    18    20    2
    38    18    21    1
    39    21    22    1
    40    21    24    1
    41    22    23    1
    42    22    47    1
    43    22    48    1
    44    23    49    1
    45    23    50    1
    46    23    51    1
    47    24    25    1
    48    24    52    1
    49    24    53    1
    50    25    54    1
    51    25    55    1
    52    25    56    1
    53    26    27   ar
    54    26    57    1
    55    27    28   ar
    56    27    58    1
    57    28    29    1
    58    29    30    1
    59    30    59    1
    60    30    60    1
    61    30    61    1
    62    31    32    1
    63    31    62    1
    64    31    63    1
    65    32    33    2
    66    34    64    1
