@<TRIPOS>MOLECULE
ZINC000408586446
 65 68 0 0 0
SMALL
GASTEIGER

@<TRIPOS>ATOM
      1 C           0.2611   -1.8665    4.0532 C.3     1  UNL1       -0.0191
      2 C           0.4214   -0.3830    3.7147 C.3     1  UNL1        0.1728
      3 H           1.1798    0.0575    4.3619 H       1  UNL1        0.0828
      4 O           0.8224   -0.2466    2.3499 O.3     1  UNL1       -0.4799
      5 C           2.1487   -0.3710    2.0811 C.ar    1  UNL1        0.1217
      6 C           2.6219   -0.1428    0.7971 C.ar    1  UNL1       -0.0181
      7 C           3.9706   -0.2696    0.5265 C.ar    1  UNL1       -0.0319
      8 C           4.8487   -0.6240    1.5340 C.ar    1  UNL1        0.1057
      9 S           6.5684   -0.7853    1.1855 S.O2    1  UNL1        0.0614
     10 O           7.0729   -1.7538    2.0948 O.2     1  UNL1       -0.1528
     11 O           6.6818   -0.9106   -0.2254 O.2     1  UNL1       -0.1528
     12 N           7.2868    0.6518    1.5867 N.3     1  UNL1       -0.1680
     13 C           7.6908    0.9073    2.9715 C.3     1  UNL1        0.0459
     14 C           9.1432    0.5455    3.1460 C.ar    1  UNL1       -0.0317
     15 C           9.4959   -0.7383    3.5181 C.ar    1  UNL1       -0.0573
     16 C          10.8282   -1.0702    3.6781 C.ar    1  UNL1       -0.0615
     17 C          11.8079   -0.1184    3.4656 C.ar    1  UNL1       -0.0617
     18 C          11.4554    1.1651    3.0927 C.ar    1  UNL1       -0.0615
     19 C          10.1232    1.4959    2.9285 C.ar    1  UNL1       -0.0573
     20 C           7.5184    1.6676    0.5568 C.3     1  UNL1        0.0459
     21 C           6.4139    2.6917    0.6040 C.ar    1  UNL1       -0.0317
     22 C           5.3082    2.5542   -0.2142 C.ar    1  UNL1       -0.0573
     23 C           4.2951    3.4936   -0.1709 C.ar    1  UNL1       -0.0615
     24 C           4.3874    4.5704    0.6910 C.ar    1  UNL1       -0.0617
     25 C           5.4927    4.7075    1.5099 C.ar    1  UNL1       -0.0615
     26 C           6.5038    3.7658    1.4696 C.ar    1  UNL1       -0.0573
     27 C           4.3797   -0.8515    2.8147 C.ar    1  UNL1       -0.0319
     28 C           3.0326   -0.7209    3.0915 C.ar    1  UNL1       -0.0181
     29 C          -0.8920    0.3252    3.9256 C.2     1  UNL1        0.2562
     30 O          -1.4763    0.8130    2.9814 O.2     1  UNL1       -0.2715
     31 N          -1.4172    0.4165    5.1634 N.am    1  UNL1       -0.2941
     32 C          -0.7236   -0.1621    6.3251 C.3     1  UNL1        0.0383
     33 C          -0.6340    0.9094    7.4178 C.3     1  UNL1        0.0635
     34 O          -1.9370    1.4459    7.6587 O.3     1  UNL1       -0.3767
     35 C          -2.5150    2.1082    6.5313 C.3     1  UNL1        0.0635
     36 C          -2.6981    1.1030    5.3941 C.3     1  UNL1        0.0383
     37 H           1.2111   -2.3787    3.9007 H       1  UNL1        0.0270
     38 H          -0.0447   -1.9705    5.0943 H       1  UNL1        0.0270
     39 H          -0.4972   -2.3070    3.4060 H       1  UNL1        0.0270
     40 H           1.9363    0.1333    0.0096 H       1  UNL1        0.0655
     41 H           4.3395   -0.0920   -0.4729 H       1  UNL1        0.0638
     42 H           7.5491    1.9631    3.2024 H       1  UNL1        0.0493
     43 H           7.0825    0.3034    3.6448 H       1  UNL1        0.0493
     44 H           8.7304   -1.4819    3.6841 H       1  UNL1        0.0621
     45 H          11.1037   -2.0730    3.9695 H       1  UNL1        0.0618
     46 H          12.8488   -0.3775    3.5914 H       1  UNL1        0.0618
     47 H          12.2208    1.9088    2.9270 H       1  UNL1        0.0618
     48 H           9.8478    2.4987    2.6371 H       1  UNL1        0.0621
     49 H           8.4755    2.1568    0.7376 H       1  UNL1        0.0493
     50 H           7.5324    1.1934   -0.4246 H       1  UNL1        0.0493
     51 H           5.2361    1.7129   -0.8876 H       1  UNL1        0.0621
     52 H           3.4316    3.3865   -0.8106 H       1  UNL1        0.0618
     53 H           3.5962    5.3048    0.7244 H       1  UNL1        0.0618
     54 H           5.5650    5.5490    2.1830 H       1  UNL1        0.0618
     55 H           7.3673    3.8729    2.1094 H       1  UNL1        0.0621
     56 H           5.0677   -1.1279    3.6000 H       1  UNL1        0.0638
     57 H           2.6668   -0.8988    4.0920 H       1  UNL1        0.0655
     58 H          -1.2836   -1.0200    6.6973 H       1  UNL1        0.0487
     59 H           0.2794   -0.4755    6.0353 H       1  UNL1        0.0487
     60 H          -0.2487    0.4632    8.3346 H       1  UNL1        0.0575
     61 H           0.0335    1.7070    7.0917 H       1  UNL1        0.0575
     62 H          -3.4830    2.5244    6.8103 H       1  UNL1        0.0575
     63 H          -1.8543    2.9101    6.2020 H       1  UNL1        0.0575
     64 H          -3.0046    1.6256    4.4880 H       1  UNL1        0.0487
     65 H          -3.4565    0.3704    5.6702 H       1  UNL1        0.0487
@<TRIPOS>BOND
     1     1     2    1
     2     1    37    1
     3     1    38    1
     4     1    39    1
     5     2     3    1
     6     2     4    1
     7     2    29    1
     8     4     5    1
     9     5    28   ar
    10     5     6   ar
    11     6     7   ar
    12     6    40    1
    13     7     8   ar
    14     7    41    1
    15     8     9    1
    16     8    27   ar
    17     9    10    2
    18     9    11    2
    19     9    12    1
    20    12    13    1
    21    12    20    1
    22    13    14    1
    23    13    42    1
    24    13    43    1
    25    14    19   ar
    26    14    15   ar
    27    15    16   ar
    28    15    44    1
    29    16    17   ar
    30    16    45    1
    31    17    18   ar
    32    17    46    1
    33    18    19   ar
    34    18    47    1
    35    19    48    1
    36    20    21    1
    37    20    49    1
    38    20    50    1
    39    21    26   ar
    40    21    22   ar
    41    22    23   ar
    42    22    51    1
    43    23    24   ar
    44    23    52    1
    45    24    25   ar
    46    24    53    1
    47    25    26   ar
    48    25    54    1
    49    26    55    1
    50    27    28   ar
    51    27    56    1
    52    28    57    1
    53    29    30    2
    54    29    31   am
    55    31    36    1
    56    31    32    1
    57    32    33    1
    58    32    58    1
    59    32    59    1
    60    33    34    1
    61    33    60    1
    62    33    61    1
    63    34    35    1
    64    35    36    1
    65    35    62    1
    66    35    63    1
    67    36    64    1
    68    36    65    1
