@<TRIPOS>MOLECULE
ZINC000010753586
 40 41 0 0 0
SMALL
GASTEIGER

@<TRIPOS>ATOM
      1 C          -0.0178    1.4608    0.0101 C.3     1  UNL1        0.0029
      2 N           0.0021   -0.0041    0.0020 N.am    1  UNL1       -0.3063
      3 C           0.0241   -0.7433    1.2666 C.3     1  UNL1        0.0029
      4 C           0.0001   -0.6716   -1.1688 C.2     1  UNL1        0.2340
      5 O          -0.0182   -0.0596   -2.2157 O.2     1  UNL1       -0.2738
      6 C           0.0205   -2.1784   -1.1771 C.3     1  UNL1        0.1080
      7 H          -0.8508   -2.5638   -0.6475 H       1  UNL1        0.0576
      8 C           1.3120   -2.6895   -0.5045 C.3     1  UNL1       -0.0260
      9 C           1.6982   -3.9124   -1.3779 C.3     1  UNL1       -0.0366
     10 C           1.2646   -3.4374   -2.7872 C.3     1  UNL1        0.0214
     11 N           0.0217   -2.6709   -2.5624 N.3     1  UNL1       -0.1647
     12 S          -1.1676   -2.4098   -3.6848 S.O2    1  UNL1        0.0615
     13 O          -1.8545   -1.2351   -3.2758 O.2     1  UNL1       -0.1528
     14 O          -0.5538   -2.5473   -4.9591 O.2     1  UNL1       -0.1528
     15 C          -2.3197   -3.7352   -3.5419 C.ar    1  UNL1        0.1055
     16 C          -2.1455   -4.8859   -4.2879 C.ar    1  UNL1       -0.0348
     17 C          -3.0494   -5.9258   -4.1757 C.ar    1  UNL1       -0.0483
     18 C          -4.1273   -5.8151   -3.3173 C.ar    1  UNL1        0.0549
     19 C          -5.1129   -6.9485   -3.1954 C.3     1  UNL1        0.4174
     20 F          -4.6967   -7.8218   -2.1848 F       1  UNL1       -0.1659
     21 F          -6.3756   -6.4364   -2.8784 F       1  UNL1       -0.1659
     22 F          -5.1815   -7.6395   -4.4099 F       1  UNL1       -0.1659
     23 C          -4.3007   -4.6650   -2.5703 C.ar    1  UNL1       -0.0483
     24 C          -3.3947   -3.6267   -2.6796 C.ar    1  UNL1       -0.0348
     25 H           1.0048    1.8381    0.0023 H       1  UNL1        0.0428
     26 H          -0.5450    1.8219   -0.8730 H       1  UNL1        0.0428
     27 H          -0.5280    1.8123    0.9069 H       1  UNL1        0.0428
     28 H           0.0224   -0.0395    2.0990 H       1  UNL1        0.0428
     29 H          -0.8567   -1.3823    1.3294 H       1  UNL1        0.0428
     30 H           0.9230   -1.3581    1.3125 H       1  UNL1        0.0428
     31 H           2.0920   -1.9289   -0.5394 H       1  UNL1        0.0286
     32 H           1.1164   -2.9959    0.5231 H       1  UNL1        0.0286
     33 H           2.7720   -4.0956   -1.3406 H       1  UNL1        0.0279
     34 H           1.1413   -4.7995   -1.0761 H       1  UNL1        0.0279
     35 H           2.0317   -2.7986   -3.2249 H       1  UNL1        0.0444
     36 H           1.0691   -4.2937   -3.4327 H       1  UNL1        0.0444
     37 H          -1.3035   -4.9724   -4.9586 H       1  UNL1        0.0637
     38 H          -2.9137   -6.8245   -4.7591 H       1  UNL1        0.0624
     39 H          -5.1426   -4.5787   -1.8993 H       1  UNL1        0.0624
     40 H          -3.5301   -2.7281   -2.0960 H       1  UNL1        0.0637
@<TRIPOS>BOND
     1     1     2    1
     2     1    25    1
     3     1    26    1
     4     1    27    1
     5     2     3    1
     6     2     4   am
     7     3    28    1
     8     3    29    1
     9     3    30    1
    10     4     5    2
    11     4     6    1
    12     6     7    1
    13     6    11    1
    14     6     8    1
    15     8     9    1
    16     8    31    1
    17     8    32    1
    18     9    10    1
    19     9    33    1
    20     9    34    1
    21    10    11    1
    22    10    35    1
    23    10    36    1
    24    12    11    1
    25    12    13    2
    26    12    14    2
    27    12    15    1
    28    15    24   ar
    29    15    16   ar
    30    16    17   ar
    31    16    37    1
    32    17    18   ar
    33    17    38    1
    34    18    19    1
    35    18    23   ar
    36    19    20    1
    37    19    21    1
    38    19    22    1
    39    23    24   ar
    40    23    39    1
    41    24    40    1
