@<TRIPOS>MOLECULE
ZINC000237508180
 40 41 0 0 0
SMALL
GASTEIGER

@<TRIPOS>ATOM
      1 C          -0.0187    1.5258    0.0104 C.3     1  UNL1       -0.0389
      2 C           0.0021   -0.0041    0.0020 C.3     1  UNL1        0.1098
      3 H           0.5123   -0.3556   -0.8948 H       1  UNL1        0.0577
      4 C           0.7309   -0.5033    1.2229 C.2     1  UNL1        0.3726
      5 O           0.1148   -1.0603    2.1155 O.co2   1  UNL1       -0.2446
      6 O           1.9368   -0.3502    1.3181 O.co2   1  UNL1       -0.2446
      7 N          -1.3761   -0.5125    0.0124 N.3     1  UNL1       -0.2875
      8 C          -2.1266    0.0242    1.1555 C.3     1  UNL1        0.0141
      9 C          -3.5991   -0.3813    1.0312 C.3     1  UNL1        0.0333
     10 N          -3.6697   -1.8417    0.8714 N.3     1  UNL1       -0.1741
     11 S          -4.6598   -2.7552    1.8345 S.O2    1  UNL1        0.0609
     12 O          -4.1184   -4.0690    1.8348 O.2     1  UNL1       -0.1528
     13 O          -4.8724   -2.0019    3.0205 O.2     1  UNL1       -0.1528
     14 C          -6.2215   -2.8608    1.0255 C.ar    1  UNL1        0.1060
     15 C          -7.1931   -1.9092    1.2717 C.ar    1  UNL1       -0.0353
     16 C          -8.4186   -1.9921    0.6369 C.ar    1  UNL1       -0.0594
     17 C          -8.6718   -3.0264   -0.2442 C.ar    1  UNL1       -0.0500
     18 C          -7.6996   -3.9778   -0.4912 C.ar    1  UNL1        0.0567
     19 C          -7.9760   -5.1058   -1.4516 C.3     1  UNL1        0.4175
     20 F          -9.2721   -4.9767   -1.9620 F       1  UNL1       -0.1659
     21 F          -7.0540   -5.0596   -2.5029 F       1  UNL1       -0.1659
     22 F          -7.8582   -6.3282   -0.7815 F       1  UNL1       -0.1659
     23 C          -6.4731   -3.8925    0.1401 C.ar    1  UNL1       -0.0237
     24 C          -2.8379   -2.4691   -0.1667 C.3     1  UNL1        0.0333
     25 C          -1.3954   -1.9814    0.0047 C.3     1  UNL1        0.0141
     26 H           1.0039    1.9031    0.0027 H       1  UNL1        0.0250
     27 H          -0.5459    1.8868   -0.8726 H       1  UNL1        0.0250
     28 H          -0.5289    1.8773    0.9072 H       1  UNL1        0.0250
     29 H          -1.7156   -0.3776    2.0816 H       1  UNL1        0.0440
     30 H          -2.0482    1.1114    1.1639 H       1  UNL1        0.0440
     31 H          -4.1377   -0.0850    1.9313 H       1  UNL1        0.0456
     32 H          -4.0404    0.1041    0.1607 H       1  UNL1        0.0456
     33 H          -6.9952   -1.1010    1.9602 H       1  UNL1        0.0637
     34 H          -9.1780   -1.2489    0.8298 H       1  UNL1        0.0618
     35 H          -9.6293   -3.0915   -0.7396 H       1  UNL1        0.0623
     36 H          -5.7136   -4.6358   -0.0528 H       1  UNL1        0.0642
     37 H          -2.8732   -3.5531   -0.0585 H       1  UNL1        0.0456
     38 H          -3.2060   -2.1845   -1.1524 H       1  UNL1        0.0456
     39 H          -0.7866   -2.3488   -0.8214 H       1  UNL1        0.0440
     40 H          -0.9945   -2.3553    0.9468 H       1  UNL1        0.0440
@<TRIPOS>BOND
     1     1     2    1
     2     1    26    1
     3     1    27    1
     4     1    28    1
     5     2     3    1
     6     2     4    1
     7     2     7    1
     8     4     5   ar
     9     4     6   ar
    10     7    25    1
    11     7     8    1
    12     8     9    1
    13     8    29    1
    14     8    30    1
    15     9    10    1
    16     9    31    1
    17     9    32    1
    18    11    10    1
    19    10    24    1
    20    11    12    2
    21    11    13    2
    22    11    14    1
    23    14    23   ar
    24    14    15   ar
    25    15    16   ar
    26    15    33    1
    27    16    17   ar
    28    16    34    1
    29    17    18   ar
    30    17    35    1
    31    18    19    1
    32    18    23   ar
    33    19    20    1
    34    19    21    1
    35    19    22    1
    36    23    36    1
    37    24    25    1
    38    24    37    1
    39    24    38    1
    40    25    39    1
    41    25    40    1
