@<TRIPOS>MOLECULE
ZINC000096171017
 36 37 0 0 0
SMALL
GASTEIGER

@<TRIPOS>ATOM
      1 C          -0.0187    1.5258    0.0104 C.3     1  UNL1       -0.0612
      2 C           0.0021   -0.0041    0.0020 C.3     1  UNL1       -0.0294
      3 H          -1.0203   -0.3818    0.0098 H       1  UNL1        0.0311
      4 C           0.7197   -0.4983   -1.2561 C.3     1  UNL1       -0.0480
      5 C           0.7122   -2.0284   -1.2819 C.3     1  UNL1       -0.0383
      6 C           1.4632   -2.5595   -0.0568 C.3     1  UNL1        0.0205
      7 N           0.8694   -1.9734    1.1526 N.3     1  UNL1       -0.1763
      8 S           0.3506   -2.9415    2.3919 S.O2    1  UNL1        0.0609
      9 O          -0.6237   -2.1924    3.1054 O.2     1  UNL1       -0.1528
     10 O           0.0867   -4.2162    1.8220 O.2     1  UNL1       -0.1528
     11 C           1.7122   -3.1591    3.4888 C.ar    1  UNL1        0.1071
     12 C           2.5895   -4.2102    3.3010 C.ar    1  UNL1       -0.0213
     13 C           3.6589   -4.3808    4.1620 C.ar    1  UNL1        0.0203
     14 BR          4.8601   -5.8185    3.9051 Br      1  UNL1       -0.0502
     15 C           3.8494   -3.4991    5.2105 C.ar    1  UNL1       -0.0360
     16 C           2.9713   -2.4480    5.3976 C.ar    1  UNL1        0.0577
     17 C           3.1790   -1.4870    6.5397 C.3     1  UNL1        0.4175
     18 F           4.3156   -1.8621    7.2639 F       1  UNL1       -0.1659
     19 F           3.3533   -0.1938    6.0352 F       1  UNL1       -0.1659
     20 F           2.0609   -1.5129    7.3802 F       1  UNL1       -0.1659
     21 C           1.9060   -2.2750    4.5340 C.ar    1  UNL1       -0.0236
     22 C           0.7443   -0.5122    1.2421 C.3     1  UNL1        0.0231
     23 H           1.0039    1.9031    0.0027 H       1  UNL1        0.0233
     24 H          -0.5459    1.8868   -0.8726 H       1  UNL1        0.0233
     25 H          -0.5289    1.8773    0.9072 H       1  UNL1        0.0233
     26 H           0.2072   -0.1177   -2.1396 H       1  UNL1        0.0269
     27 H           1.7492   -0.1402   -1.2513 H       1  UNL1        0.0269
     28 H          -0.3167   -2.3876   -1.2618 H       1  UNL1        0.0278
     29 H           1.2029   -2.3794   -2.1897 H       1  UNL1        0.0278
     30 H           1.3762   -3.6453   -0.0173 H       1  UNL1        0.0444
     31 H           2.5140   -2.2771   -0.1216 H       1  UNL1        0.0444
     32 H           2.4402   -4.8987    2.4823 H       1  UNL1        0.0648
     33 H           4.6838   -3.6321    5.8831 H       1  UNL1        0.0634
     34 H           1.2204   -1.4534    4.6803 H       1  UNL1        0.0642
     35 H           1.7363   -0.0624    1.2831 H       1  UNL1        0.0446
     36 H           0.1835   -0.2477    2.1385 H       1  UNL1        0.0446
@<TRIPOS>BOND
     1     1     2    1
     2     1    23    1
     3     1    24    1
     4     1    25    1
     5     2     3    1
     6     2    22    1
     7     2     4    1
     8     4     5    1
     9     4    26    1
    10     4    27    1
    11     5     6    1
    12     5    28    1
    13     5    29    1
    14     6     7    1
    15     6    30    1
    16     6    31    1
    17     8     7    1
    18     7    22    1
    19     8     9    2
    20     8    10    2
    21     8    11    1
    22    11    21   ar
    23    11    12   ar
    24    12    13   ar
    25    12    32    1
    26    13    14    1
    27    13    15   ar
    28    15    16   ar
    29    15    33    1
    30    16    17    1
    31    16    21   ar
    32    17    18    1
    33    17    19    1
    34    17    20    1
    35    21    34    1
    36    22    35    1
    37    22    36    1
