@<TRIPOS>MOLECULE
ZINC000003391894
 47 48 0 0 0
SMALL
GASTEIGER

@<TRIPOS>ATOM
      1 C          -0.0173    1.4248    0.0099 C.3     1  UNL1        0.0364
      2 O           0.0021   -0.0041    0.0020 O.3     1  UNL1       -0.3829
      3 C          -1.2953   -0.6030    0.0112 C.3     1  UNL1        0.0485
      4 C          -1.1538   -2.1264    0.0017 C.3     1  UNL1       -0.0150
      5 C          -2.5429   -2.7677    0.0115 C.3     1  UNL1        0.0231
      6 N          -2.4075   -4.2264    0.0023 N.3     1  UNL1       -0.1677
      7 C          -2.2176   -4.9523    1.2606 C.3     1  UNL1        0.0968
      8 C          -3.5592   -5.2254    1.8904 C.2     1  UNL1        0.2290
      9 O          -4.5740   -4.8505    1.3422 O.2     1  UNL1       -0.2743
     10 N          -3.6312   -5.8861    3.0629 N.am    1  UNL1       -0.3114
     11 C          -4.9354   -6.1516    3.6751 C.3     1  UNL1        0.0233
     12 C          -5.1711   -7.5461    4.2588 C.3     1  UNL1       -0.0328
     13 C          -4.9768   -6.3491    5.1918 C.3     1  UNL1       -0.0328
     14 S          -2.4690   -5.0547   -1.4303 S.O2    1  UNL1        0.0613
     15 O          -2.8632   -6.3818   -1.1099 O.2     1  UNL1       -0.1528
     16 O          -3.1837   -4.2299   -2.3403 O.2     1  UNL1       -0.1528
     17 C          -0.8204   -5.1597   -2.0433 C.ar    1  UNL1        0.1055
     18 C          -0.3254   -4.1673   -2.8685 C.ar    1  UNL1       -0.0351
     19 C           0.9680   -4.2497   -3.3494 C.ar    1  UNL1       -0.0570
     20 C           1.7665   -5.3242   -3.0048 C.ar    1  UNL1       -0.0503
     21 C           3.1763   -5.4142   -3.5294 C.3     1  UNL1       -0.0397
     22 C           1.2719   -6.3158   -2.1784 C.ar    1  UNL1       -0.0570
     23 C          -0.0202   -6.2315   -1.6944 C.ar    1  UNL1       -0.0351
     24 H           1.0053    1.8021    0.0021 H       1  UNL1        0.0523
     25 H          -0.5445    1.7859   -0.8732 H       1  UNL1        0.0523
     26 H          -0.5275    1.7763    0.9067 H       1  UNL1        0.0523
     27 H          -1.8320   -0.2936    0.9080 H       1  UNL1        0.0560
     28 H          -1.8490   -0.2840   -0.8718 H       1  UNL1        0.0560
     29 H          -0.6171   -2.4359   -0.8952 H       1  UNL1        0.0300
     30 H          -0.6001   -2.4454    0.8847 H       1  UNL1        0.0300
     31 H          -3.0796   -2.4582    0.9083 H       1  UNL1        0.0445
     32 H          -3.0966   -2.4487   -0.8716 H       1  UNL1        0.0445
     33 H          -1.7103   -5.8965    1.0624 H       1  UNL1        0.0539
     34 H          -1.6132   -4.3507    1.9395 H       1  UNL1        0.0539
     35 H          -2.8196   -6.1859    3.5013 H       1  UNL1        0.1490
     36 H          -5.7841   -5.6505    3.2095 H       1  UNL1        0.0498
     37 H          -6.1750   -7.9628    4.1771 H       1  UNL1        0.0284
     38 H          -4.3558   -8.2660    4.1873 H       1  UNL1        0.0284
     39 H          -4.0336   -6.2816    5.7340 H       1  UNL1        0.0284
     40 H          -5.8528   -5.9783    5.7239 H       1  UNL1        0.0284
     41 H          -0.9492   -3.3278   -3.1378 H       1  UNL1        0.0637
     42 H           1.3546   -3.4747   -3.9947 H       1  UNL1        0.0621
     43 H           3.8551   -4.9204   -2.8340 H       1  UNL1        0.0278
     44 H           3.4597   -6.4617   -3.6318 H       1  UNL1        0.0278
     45 H           3.2339   -4.9255   -4.5021 H       1  UNL1        0.0278
     46 H           1.8958   -7.1551   -1.9088 H       1  UNL1        0.0621
     47 H          -0.4066   -7.0063   -1.0488 H       1  UNL1        0.0637
@<TRIPOS>BOND
     1     1     2    1
     2     1    24    1
     3     1    25    1
     4     1    26    1
     5     2     3    1
     6     3     4    1
     7     3    27    1
     8     3    28    1
     9     4     5    1
    10     4    29    1
    11     4    30    1
    12     5     6    1
    13     5    31    1
    14     5    32    1
    15     6     7    1
    16    14     6    1
    17     7     8    1
    18     7    33    1
    19     7    34    1
    20     8     9    2
    21     8    10   am
    22    10    11    1
    23    10    35    1
    24    11    13    1
    25    11    12    1
    26    11    36    1
    27    12    13    1
    28    12    37    1
    29    12    38    1
    30    13    39    1
    31    13    40    1
    32    14    15    2
    33    14    16    2
    34    14    17    1
    35    17    23   ar
    36    17    18   ar
    37    18    19   ar
    38    18    41    1
    39    19    20   ar
    40    19    42    1
    41    20    21    1
    42    20    22   ar
    43    21    43    1
    44    21    44    1
    45    21    45    1
    46    22    23   ar
    47    22    46    1
    48    23    47    1
