@<TRIPOS>MOLECULE
ZINC000408582203
 56 57 0 0 0
SMALL
GASTEIGER

@<TRIPOS>ATOM
      1 C          -0.0187    1.5258    0.0104 C.3     1  UNL1       -0.0652
      2 C           0.0021   -0.0041    0.0020 C.3     1  UNL1       -0.0542
      3 C           0.7182   -0.4975   -1.2568 C.3     1  UNL1       -0.0350
      4 C           0.7390   -2.0273   -1.2652 C.3     1  UNL1        0.0203
      5 H          -0.2789   -2.4050   -1.1679 H       1  UNL1        0.0495
      6 C           1.3429   -2.5219   -2.5810 C.3     1  UNL1       -0.0466
      7 N           1.5485   -2.5109   -0.1440 N.am    1  UNL1       -0.3116
      8 C           1.3281   -3.7388    0.3660 C.2     1  UNL1        0.2290
      9 O           0.4596   -4.4434   -0.1031 O.2     1  UNL1       -0.2743
     10 C           2.1609   -4.2362    1.5193 C.3     1  UNL1        0.0971
     11 N           1.7293   -5.5872    1.8864 N.3     1  UNL1       -0.1635
     12 C           2.2724   -6.7479    1.1764 C.3     1  UNL1        0.0460
     13 C           3.5821   -7.1522    1.8028 C.ar    1  UNL1       -0.0317
     14 C           4.7655   -6.6030    1.3458 C.ar    1  UNL1       -0.0573
     15 C           5.9668   -6.9739    1.9203 C.ar    1  UNL1       -0.0615
     16 C           5.9847   -7.8936    2.9521 C.ar    1  UNL1       -0.0617
     17 C           4.8013   -8.4422    3.4097 C.ar    1  UNL1       -0.0615
     18 C           3.5995   -8.0681    2.8380 C.ar    1  UNL1       -0.0573
     19 S           0.6275   -5.8024    3.1038 S.O2    1  UNL1        0.0616
     20 O           0.8211   -7.1229    3.5915 O.2     1  UNL1       -0.1528
     21 O           0.7113   -4.6488    3.9293 O.2     1  UNL1       -0.1528
     22 C          -0.9738   -5.7732    2.3692 C.ar    1  UNL1        0.1071
     23 C          -1.6511   -4.5752    2.2383 C.ar    1  UNL1       -0.0318
     24 C          -2.9069   -4.5490    1.6621 C.ar    1  UNL1       -0.0166
     25 C          -3.4883   -5.7257    1.2149 C.ar    1  UNL1        0.1384
     26 O          -4.7232   -5.7023    0.6475 O.3     1  UNL1       -0.4936
     27 C          -5.3653   -4.4299    0.5436 C.3     1  UNL1        0.0789
     28 C          -2.8064   -6.9281    1.3473 C.ar    1  UNL1        0.0844
     29 CL         -3.5304   -8.4038    0.7887 Cl      1  UNL1       -0.0797
     30 C          -1.5484   -6.9479    1.9195 C.ar    1  UNL1       -0.0134
     31 H           1.0039    1.9031    0.0027 H       1  UNL1        0.0230
     32 H          -0.5459    1.8868   -0.8726 H       1  UNL1        0.0230
     33 H          -0.5289    1.8773    0.9072 H       1  UNL1        0.0230
     34 H           0.5293   -0.3651    0.8851 H       1  UNL1        0.0263
     35 H          -1.0205   -0.3814    0.0098 H       1  UNL1        0.0263
     36 H           0.1910   -0.1364   -2.1398 H       1  UNL1        0.0283
     37 H           1.7408   -0.1202   -1.2645 H       1  UNL1        0.0283
     38 H           1.3577   -3.6118   -2.5870 H       1  UNL1        0.0247
     39 H           0.7406   -2.1622   -3.4152 H       1  UNL1        0.0247
     40 H           2.3608   -2.1442   -2.6783 H       1  UNL1        0.0247
     41 H           2.2431   -1.9473    0.2312 H       1  UNL1        0.1490
     42 H           3.2108   -4.2570    1.2271 H       1  UNL1        0.0539
     43 H           2.0345   -3.5700    2.3727 H       1  UNL1        0.0539
     44 H           1.5672   -7.5765    1.2419 H       1  UNL1        0.0493
     45 H           2.4344   -6.4905    0.1297 H       1  UNL1        0.0493
     46 H           4.7515   -5.8844    0.5397 H       1  UNL1        0.0621
     47 H           6.8914   -6.5453    1.5628 H       1  UNL1        0.0618
     48 H           6.9234   -8.1839    3.4005 H       1  UNL1        0.0618
     49 H           4.8153   -9.1610    4.2156 H       1  UNL1        0.0618
     50 H           2.6749   -8.4967    3.1955 H       1  UNL1        0.0621
     51 H          -1.1983   -3.6588    2.5869 H       1  UNL1        0.0638
     52 H          -3.4354   -3.6126    1.5606 H       1  UNL1        0.0655
     53 H          -5.4923   -4.0046    1.5391 H       1  UNL1        0.0660
     54 H          -4.7523   -3.7619   -0.0615 H       1  UNL1        0.0660
     55 H          -6.3412   -4.5527    0.0738 H       1  UNL1        0.0660
     56 H          -1.0171   -7.8825    2.0226 H       1  UNL1        0.0653
@<TRIPOS>BOND
     1     1     2    1
     2     1    31    1
     3     1    32    1
     4     1    33    1
     5     2     3    1
     6     2    34    1
     7     2    35    1
     8     3     4    1
     9     3    36    1
    10     3    37    1
    11     4     5    1
    12     4     6    1
    13     4     7    1
    14     6    38    1
    15     6    39    1
    16     6    40    1
    17     7     8   am
    18     7    41    1
    19     8     9    2
    20     8    10    1
    21    10    11    1
    22    10    42    1
    23    10    43    1
    24    11    12    1
    25    19    11    1
    26    12    13    1
    27    12    44    1
    28    12    45    1
    29    13    18   ar
    30    13    14   ar
    31    14    15   ar
    32    14    46    1
    33    15    16   ar
    34    15    47    1
    35    16    17   ar
    36    16    48    1
    37    17    18   ar
    38    17    49    1
    39    18    50    1
    40    19    20    2
    41    19    21    2
    42    19    22    1
    43    22    30   ar
    44    22    23   ar
    45    23    24   ar
    46    23    51    1
    47    24    25   ar
    48    24    52    1
    49    25    26    1
    50    25    28   ar
    51    26    27    1
    52    27    53    1
    53    27    54    1
    54    27    55    1
    55    28    29    1
    56    28    30   ar
    57    30    56    1
