@<TRIPOS>MOLECULE
ZINC000408612539
 69 71 0 0 0
SMALL
GASTEIGER

@<TRIPOS>ATOM
      1 C          -0.0173    1.4248    0.0099 C.3     1  UNL1        0.0788
      2 O           0.0021   -0.0041    0.0020 O.3     1  UNL1       -0.4948
      3 C           0.6058   -0.6071   -1.0557 C.ar    1  UNL1        0.1231
      4 C           1.1729    0.1605   -2.0622 C.ar    1  UNL1       -0.0178
      5 C           1.7865   -0.4550   -3.1363 C.ar    1  UNL1       -0.0319
      6 C           1.8352   -1.8346   -3.2086 C.ar    1  UNL1        0.1060
      7 S           2.6179   -2.6165   -4.5799 S.O2    1  UNL1        0.0613
      8 O           2.0536   -3.9171   -4.6761 O.2     1  UNL1       -0.1528
      9 O           2.5918   -1.6772   -5.6459 O.2     1  UNL1       -0.1528
     10 N           4.2113   -2.8264   -4.1806 N.3     1  UNL1       -0.1675
     11 C           4.6429   -4.0563   -3.5117 C.3     1  UNL1        0.0250
     12 C           5.1513   -5.0530   -4.5552 C.3     1  UNL1       -0.0132
     13 C           5.5953   -6.3181   -3.8671 C.ar    1  UNL1       -0.0461
     14 C           6.9022   -6.4482   -3.4360 C.ar    1  UNL1       -0.0585
     15 C           7.3095   -7.6087   -2.8048 C.ar    1  UNL1       -0.0615
     16 C           6.4097   -8.6388   -2.6043 C.ar    1  UNL1       -0.0617
     17 C           5.1025   -8.5082   -3.0347 C.ar    1  UNL1       -0.0615
     18 C           4.6942   -7.3461   -3.6620 C.ar    1  UNL1       -0.0585
     19 C           5.1893   -1.7823   -4.4963 C.3     1  UNL1        0.0968
     20 C           5.3782   -0.8915   -3.2955 C.2     1  UNL1        0.2290
     21 O           4.7571   -1.1075   -2.2765 O.2     1  UNL1       -0.2743
     22 N           6.2374    0.1453   -3.3541 N.am    1  UNL1       -0.3116
     23 C           6.4211    1.0113   -2.1869 C.3     1  UNL1        0.0206
     24 H           6.3425    0.4162   -1.2770 H       1  UNL1        0.0495
     25 C           5.3419    2.0959   -2.1817 C.3     1  UNL1       -0.0466
     26 C           7.8023    1.6664   -2.2502 C.3     1  UNL1       -0.0308
     27 C           8.8832    0.5903   -2.1299 C.3     1  UNL1       -0.0260
     28 C          10.2436    1.2355   -2.1922 C.ar    1  UNL1       -0.0473
     29 C          10.8709    1.4093   -3.4117 C.ar    1  UNL1       -0.0586
     30 C          12.1188    2.0012   -3.4689 C.ar    1  UNL1       -0.0615
     31 C          12.7392    2.4197   -2.3067 C.ar    1  UNL1       -0.0617
     32 C          12.1115    2.2468   -1.0873 C.ar    1  UNL1       -0.0615
     33 C          10.8617    1.6588   -1.0305 C.ar    1  UNL1       -0.0586
     34 C           1.2709   -2.6022   -2.2062 C.ar    1  UNL1       -0.0290
     35 C           0.6609   -1.9917   -1.1277 C.ar    1  UNL1       -0.0070
     36 C           0.0467   -2.8287   -0.0354 C.3     1  UNL1       -0.0362
     37 H           1.0053    1.8021    0.0021 H       1  UNL1        0.0660
     38 H          -0.5445    1.7859   -0.8732 H       1  UNL1        0.0660
     39 H          -0.5275    1.7763    0.9067 H       1  UNL1        0.0660
     40 H           1.1346    1.2384   -2.0066 H       1  UNL1        0.0655
     41 H           2.2283    0.1423   -3.9203 H       1  UNL1        0.0638
     42 H           5.4436   -3.8258   -2.8090 H       1  UNL1        0.0447
     43 H           3.8011   -4.4917   -2.9733 H       1  UNL1        0.0447
     44 H           4.3506   -5.2834   -5.2580 H       1  UNL1        0.0326
     45 H           5.9931   -4.6176   -5.0937 H       1  UNL1        0.0326
     46 H           7.6052   -5.6434   -3.5926 H       1  UNL1        0.0620
     47 H           8.3307   -7.7106   -2.4686 H       1  UNL1        0.0618
     48 H           6.7281   -9.5457   -2.1118 H       1  UNL1        0.0618
     49 H           4.3996   -9.3132   -2.8784 H       1  UNL1        0.0618
     50 H           3.6729   -7.2441   -3.9982 H       1  UNL1        0.0620
     51 H           6.1410   -2.2437   -4.7598 H       1  UNL1        0.0539
     52 H           4.8285   -1.1885   -5.3361 H       1  UNL1        0.0539
     53 H           6.7341    0.3180   -4.1692 H       1  UNL1        0.1490
     54 H           5.4786    2.7402   -1.3132 H       1  UNL1        0.0247
     55 H           5.4204    2.6909   -3.0915 H       1  UNL1        0.0247
     56 H           4.3579    1.6291   -2.1366 H       1  UNL1        0.0247
     57 H           7.9135    2.1885   -3.2005 H       1  UNL1        0.0286
     58 H           7.9049    2.3777   -1.4307 H       1  UNL1        0.0286
     59 H           8.7719    0.0682   -1.1795 H       1  UNL1        0.0314
     60 H           8.7805   -0.1210   -2.9494 H       1  UNL1        0.0314
     61 H          10.3862    1.0824   -4.3198 H       1  UNL1        0.0620
     62 H          12.6092    2.1364   -4.4216 H       1  UNL1        0.0618
     63 H          13.7145    2.8815   -2.3513 H       1  UNL1        0.0618
     64 H          12.5964    2.5734   -0.1792 H       1  UNL1        0.0618
     65 H          10.3713    1.5236   -0.0778 H       1  UNL1        0.0620
     66 H           1.3105   -3.6799   -2.2647 H       1  UNL1        0.0641
     67 H           0.7936   -3.0283    0.7329 H       1  UNL1        0.0279
     68 H          -0.7932   -2.2915    0.4052 H       1  UNL1        0.0279
     69 H          -0.3047   -3.7717   -0.4543 H       1  UNL1        0.0279
@<TRIPOS>BOND
     1     1     2    1
     2     1    37    1
     3     1    38    1
     4     1    39    1
     5     2     3    1
     6     3    35   ar
     7     3     4   ar
     8     4     5   ar
     9     4    40    1
    10     5     6   ar
    11     5    41    1
    12     6     7    1
    13     6    34   ar
    14     7     8    2
    15     7     9    2
    16     7    10    1
    17    10    11    1
    18    10    19    1
    19    11    12    1
    20    11    42    1
    21    11    43    1
    22    12    13    1
    23    12    44    1
    24    12    45    1
    25    13    18   ar
    26    13    14   ar
    27    14    15   ar
    28    14    46    1
    29    15    16   ar
    30    15    47    1
    31    16    17   ar
    32    16    48    1
    33    17    18   ar
    34    17    49    1
    35    18    50    1
    36    19    20    1
    37    19    51    1
    38    19    52    1
    39    20    21    2
    40    20    22   am
    41    22    23    1
    42    22    53    1
    43    23    24    1
    44    23    25    1
    45    23    26    1
    46    25    54    1
    47    25    55    1
    48    25    56    1
    49    26    27    1
    50    26    57    1
    51    26    58    1
    52    27    28    1
    53    27    59    1
    54    27    60    1
    55    28    33   ar
    56    28    29   ar
    57    29    30   ar
    58    29    61    1
    59    30    31   ar
    60    30    62    1
    61    31    32   ar
    62    31    63    1
    63    32    33   ar
    64    32    64    1
    65    33    65    1
    66    34    35   ar
    67    34    66    1
    68    35    36    1
    69    36    67    1
    70    36    68    1
    71    36    69    1
