@<TRIPOS>MOLECULE
ZINC000003024934
 53 55 0 0 0
SMALL
GASTEIGER

@<TRIPOS>ATOM
      1 C          -0.0263    1.5450   -0.0282 C.3     1  UNL1       -0.0612
      2 C          -0.0091    0.0151   -0.0317 C.3     1  UNL1       -0.0292
      3 H           0.5055   -0.3409   -0.9242 H       1  UNL1        0.0311
      4 C          -1.4458   -0.5119   -0.0261 C.3     1  UNL1       -0.0454
      5 C          -1.4300   -2.0418   -0.0626 C.3     1  UNL1       -0.0292
      6 H          -2.4536   -2.4158   -0.0822 H       1  UNL1        0.0311
      7 C          -0.6893   -2.5150   -1.3150 C.3     1  UNL1       -0.0612
      8 C          -0.7160   -2.5710    1.1851 C.3     1  UNL1        0.0231
      9 N           0.6158   -1.9555    1.2647 N.3     1  UNL1       -0.1761
     10 S           1.9723   -2.8947    1.4055 S.O2    1  UNL1        0.0609
     11 O           2.9693   -2.0735    1.9978 O.2     1  UNL1       -0.1528
     12 O           1.5488   -4.1298    1.9663 O.2     1  UNL1       -0.1528
     13 C           2.5294   -3.2545   -0.2269 C.ar    1  UNL1        0.1064
     14 C           2.0611   -4.3796   -0.8833 C.ar    1  UNL1       -0.0326
     15 C           2.4923   -4.6711   -2.1641 C.ar    1  UNL1       -0.0238
     16 C           3.3958   -3.8385   -2.7983 C.ar    1  UNL1        0.1356
     17 F           3.8171   -4.1234   -4.0499 F       1  UNL1       -0.2047
     18 C           3.8720   -2.6999   -2.1399 C.ar    1  UNL1        0.0740
     19 C           4.8371   -1.8049   -2.8091 C.2     1  UNL1        0.2511
     20 O           5.2199   -2.0567   -3.9353 O.2     1  UNL1       -0.2698
     21 N           5.2936   -0.7087   -2.1715 N.am    1  UNL1       -0.2814
     22 C           6.2796    0.0857   -2.7653 C.ar    1  UNL1        0.0337
     23 C           7.2479    0.6967   -1.9790 C.ar    1  UNL1       -0.0399
     24 C           8.2205    1.4802   -2.5685 C.ar    1  UNL1       -0.0484
     25 C           8.2307    1.6571   -3.9400 C.ar    1  UNL1        0.0549
     26 C           9.2935    2.5127   -4.5798 C.3     1  UNL1        0.4174
     27 F          10.3968    1.7178   -4.9087 F       1  UNL1       -0.1659
     28 F           8.7812    3.1026   -5.7403 F       1  UNL1       -0.1659
     29 F           9.6893    3.5121   -3.6844 F       1  UNL1       -0.1659
     30 C           7.2681    1.0502   -4.7256 C.ar    1  UNL1       -0.0484
     31 C           6.2961    0.2608   -4.1430 C.ar    1  UNL1       -0.0399
     32 C           3.4261   -2.4113   -0.8485 C.ar    1  UNL1       -0.0204
     33 C           0.7218   -0.4908    1.2160 C.3     1  UNL1        0.0231
     34 H           0.9972    1.9199   -0.0311 H       1  UNL1        0.0233
     35 H          -0.5474    1.9045   -0.9156 H       1  UNL1        0.0233
     36 H          -0.5410    1.9006    0.8644 H       1  UNL1        0.0233
     37 H          -1.9525   -0.1755    0.8785 H       1  UNL1        0.0271
     38 H          -1.9750   -0.1332   -0.9005 H       1  UNL1        0.0271
     39 H           0.3345   -2.1416   -1.2944 H       1  UNL1        0.0233
     40 H          -0.6783   -3.6046   -1.3406 H       1  UNL1        0.0233
     41 H          -1.1966   -2.1358   -2.2021 H       1  UNL1        0.0233
     42 H          -1.2920   -2.3117    2.0734 H       1  UNL1        0.0446
     43 H          -0.6144   -3.6541    1.1162 H       1  UNL1        0.0446
     44 H           1.3555   -5.0334   -0.3922 H       1  UNL1        0.0638
     45 H           2.1229   -5.5509   -2.6700 H       1  UNL1        0.0647
     46 H           4.9383   -0.4708   -1.3009 H       1  UNL1        0.1551
     47 H           7.2401    0.5595   -0.9078 H       1  UNL1        0.0636
     48 H           8.9737    1.9556   -1.9577 H       1  UNL1        0.0624
     49 H           7.2788    1.1903   -5.7965 H       1  UNL1        0.0624
     50 H           5.5448   -0.2133   -4.7572 H       1  UNL1        0.0636
     51 H           3.7895   -1.5339   -0.3342 H       1  UNL1        0.0645
     52 H           1.7717   -0.2018    1.1678 H       1  UNL1        0.0446
     53 H           0.2629   -0.0614    2.1066 H       1  UNL1        0.0446
@<TRIPOS>BOND
     1     1     2    1
     2     1    34    1
     3     1    35    1
     4     1    36    1
     5     2     3    1
     6     2    33    1
     7     2     4    1
     8     4     5    1
     9     4    37    1
    10     4    38    1
    11     5     6    1
    12     5     7    1
    13     5     8    1
    14     7    39    1
    15     7    40    1
    16     7    41    1
    17     8     9    1
    18     8    42    1
    19     8    43    1
    20    10     9    1
    21     9    33    1
    22    10    11    2
    23    10    12    2
    24    10    13    1
    25    13    32   ar
    26    13    14   ar
    27    14    15   ar
    28    14    44    1
    29    15    16   ar
    30    15    45    1
    31    16    17    1
    32    16    18   ar
    33    18    19    1
    34    18    32   ar
    35    19    20    2
    36    19    21   am
    37    21    22    1
    38    21    46    1
    39    22    31   ar
    40    22    23   ar
    41    23    24   ar
    42    23    47    1
    43    24    25   ar
    44    24    48    1
    45    25    26    1
    46    25    30   ar
    47    26    27    1
    48    26    28    1
    49    26    29    1
    50    30    31   ar
    51    30    49    1
    52    31    50    1
    53    32    51    1
    54    33    52    1
    55    33    53    1
