@<TRIPOS>MOLECULE
ZINC000408533121
 59 60 0 0 0
SMALL
GASTEIGER

@<TRIPOS>ATOM
      1 C          -0.0187    1.5258    0.0104 C.3     1  UNL1       -0.0636
      2 C           0.0021   -0.0041    0.0020 C.3     1  UNL1       -0.0376
      3 C           0.7182   -0.4975   -1.2568 C.3     1  UNL1        0.0201
      4 H           1.7103   -0.0491   -1.3098 H       1  UNL1        0.0495
      5 C           0.8493   -2.0210   -1.2049 C.3     1  UNL1       -0.0466
      6 N          -0.0549   -0.1139   -2.4405 N.am    1  UNL1       -0.3116
      7 C           0.5610    0.0279   -3.6309 C.2     1  UNL1        0.2290
      8 O           1.7554   -0.1622   -3.7221 O.2     1  UNL1       -0.2743
      9 C          -0.2343    0.4225   -4.8486 C.3     1  UNL1        0.0968
     10 N           0.6578    0.5093   -6.0075 N.3     1  UNL1       -0.1675
     11 C           0.9760   -0.6949   -6.7787 C.3     1  UNL1        0.0250
     12 C          -0.1165   -0.9356   -7.8224 C.3     1  UNL1       -0.0132
     13 C           0.2108   -2.1743   -8.6158 C.ar    1  UNL1       -0.0461
     14 C           0.9726   -2.0777   -9.7653 C.ar    1  UNL1       -0.0585
     15 C           1.2728   -3.2140  -10.4930 C.ar    1  UNL1       -0.0615
     16 C           0.8117   -4.4469  -10.0710 C.ar    1  UNL1       -0.0617
     17 C           0.0507   -4.5437   -8.9211 C.ar    1  UNL1       -0.0615
     18 C          -0.2459   -3.4080   -8.1910 C.ar    1  UNL1       -0.0585
     19 S           1.3064    1.9686   -6.4456 S.O2    1  UNL1        0.0613
     20 O           1.6313    1.8654   -7.8251 O.2     1  UNL1       -0.1528
     21 O           0.4392    2.9661   -5.9239 O.2     1  UNL1       -0.1528
     22 C           2.8350    2.1392   -5.5859 C.ar    1  UNL1        0.1060
     23 C           2.8614    2.7283   -4.3356 C.ar    1  UNL1       -0.0319
     24 C           4.0587    2.8628   -3.6592 C.ar    1  UNL1       -0.0178
     25 C           5.2347    2.4061   -4.2357 C.ar    1  UNL1        0.1231
     26 O           6.4135    2.5369   -3.5722 O.3     1  UNL1       -0.4948
     27 C           6.3681    3.1545   -2.2844 C.3     1  UNL1        0.0788
     28 C           5.2055    1.8152   -5.4907 C.ar    1  UNL1       -0.0070
     29 C           6.4813    1.3174   -6.1198 C.3     1  UNL1       -0.0362
     30 C           4.0053    1.6783   -6.1605 C.ar    1  UNL1       -0.0290
     31 H           1.0039    1.9031    0.0027 H       1  UNL1        0.0230
     32 H          -0.5459    1.8868   -0.8726 H       1  UNL1        0.0230
     33 H          -0.5289    1.8773    0.9072 H       1  UNL1        0.0230
     34 H           0.5293   -0.3651    0.8851 H       1  UNL1        0.0280
     35 H          -1.0205   -0.3814    0.0098 H       1  UNL1        0.0280
     36 H          -0.1428   -2.4694   -1.1520 H       1  UNL1        0.0247
     37 H           1.3594   -2.3725   -2.1017 H       1  UNL1        0.0247
     38 H           1.4245   -2.3064   -0.3242 H       1  UNL1        0.0247
     39 H          -1.0102    0.0381   -2.3676 H       1  UNL1        0.1490
     40 H          -1.0041   -0.3256   -5.0379 H       1  UNL1        0.0539
     41 H          -0.7034    1.3915   -4.6778 H       1  UNL1        0.0539
     42 H           1.9347   -0.5625   -7.2801 H       1  UNL1        0.0447
     43 H           1.0324   -1.5519   -6.1075 H       1  UNL1        0.0447
     44 H          -1.0752   -1.0681   -7.3210 H       1  UNL1        0.0326
     45 H          -0.1729   -0.0786   -8.4936 H       1  UNL1        0.0326
     46 H           1.3328   -1.1144  -10.0950 H       1  UNL1        0.0620
     47 H           1.8674   -3.1384  -11.3915 H       1  UNL1        0.0618
     48 H           1.0457   -5.3346  -10.6400 H       1  UNL1        0.0618
     49 H          -0.3098   -5.5069   -8.5916 H       1  UNL1        0.0618
     50 H          -0.8405   -3.4835   -7.2925 H       1  UNL1        0.0620
     51 H           1.9455    3.0841   -3.8873 H       1  UNL1        0.0638
     52 H           4.0789    3.3235   -2.6825 H       1  UNL1        0.0655
     53 H           5.7239    2.5729   -1.6250 H       1  UNL1        0.0660
     54 H           7.3737    3.1962   -1.8658 H       1  UNL1        0.0660
     55 H           5.9722    4.1655   -2.3801 H       1  UNL1        0.0660
     56 H           6.6453    0.2781   -5.8352 H       1  UNL1        0.0279
     57 H           6.4035    1.3891   -7.2047 H       1  UNL1        0.0279
     58 H           7.3178    1.9250   -5.7745 H       1  UNL1        0.0279
     59 H           3.9820    1.2180   -7.1373 H       1  UNL1        0.0641
@<TRIPOS>BOND
     1     1     2    1
     2     1    31    1
     3     1    32    1
     4     1    33    1
     5     2     3    1
     6     2    34    1
     7     2    35    1
     8     3     4    1
     9     3     5    1
    10     3     6    1
    11     5    36    1
    12     5    37    1
    13     5    38    1
    14     6     7   am
    15     6    39    1
    16     7     8    2
    17     7     9    1
    18     9    10    1
    19     9    40    1
    20     9    41    1
    21    10    11    1
    22    19    10    1
    23    11    12    1
    24    11    42    1
    25    11    43    1
    26    12    13    1
    27    12    44    1
    28    12    45    1
    29    13    18   ar
    30    13    14   ar
    31    14    15   ar
    32    14    46    1
    33    15    16   ar
    34    15    47    1
    35    16    17   ar
    36    16    48    1
    37    17    18   ar
    38    17    49    1
    39    18    50    1
    40    19    20    2
    41    19    21    2
    42    19    22    1
    43    22    30   ar
    44    22    23   ar
    45    23    24   ar
    46    23    51    1
    47    24    25   ar
    48    24    52    1
    49    25    26    1
    50    25    28   ar
    51    26    27    1
    52    27    53    1
    53    27    54    1
    54    27    55    1
    55    28    29    1
    56    28    30   ar
    57    29    56    1
    58    29    57    1
    59    29    58    1
    60    30    59    1
