@<TRIPOS>MOLECULE
ZINC000065364734
 46 47 0 0 0
SMALL
GASTEIGER

@<TRIPOS>ATOM
      1 C           0.0621    1.0956   -0.5962 C.3     1  UNL1       -0.0362
      2 C           0.1714   -0.3051    0.0097 C.3     1  UNL1        0.1190
      3 H           0.6911   -0.2478    0.9661 H       1  UNL1        0.0611
      4 C           0.9416   -1.1991   -0.9277 C.2     1  UNL1        0.2376
      5 O           0.3499   -1.9685   -1.6550 O.2     1  UNL1       -0.2735
      6 N           2.2879   -1.1437   -0.9578 N.am    1  UNL1       -0.2999
      7 C           3.0151   -0.1622   -0.1414 C.3     1  UNL1        0.0147
      8 C           4.0572   -0.9002    0.7049 C.3     1  UNL1       -0.0371
      9 C           4.9499   -1.7407   -0.2111 C.3     1  UNL1       -0.0502
     10 C           4.0978   -2.7803   -0.9427 C.3     1  UNL1       -0.0371
     11 C           3.0564   -2.0676   -1.8030 C.3     1  UNL1        0.0147
     12 N          -1.1711   -0.8543    0.2155 N.pl3   1  UNL1       -0.1960
     13 C          -2.0287   -1.0288   -0.8730 C.ar    1  UNL1        0.0522
     14 C          -2.4082   -2.3069   -1.2622 C.ar    1  UNL1       -0.0390
     15 C          -3.2569   -2.4759   -2.3388 C.ar    1  UNL1       -0.0594
     16 C          -3.7284   -1.3745   -3.0289 C.ar    1  UNL1       -0.0500
     17 C          -3.3521   -0.1004   -2.6443 C.ar    1  UNL1        0.0566
     18 C          -3.8686    1.0971   -3.3995 C.3     1  UNL1        0.4175
     19 F          -4.7033    0.6694   -4.4375 F       1  UNL1       -0.1659
     20 F          -4.5910    1.9210   -2.5296 F       1  UNL1       -0.1659
     21 F          -2.7911    1.8128   -3.9324 F       1  UNL1       -0.1659
     22 C          -2.5086    0.0760   -1.5654 C.ar    1  UNL1       -0.0274
     23 S          -1.6718   -1.2682    1.7388 S.O2    1  UNL1        0.0432
     24 C          -2.5326    0.2074    2.3488 C.3     1  UNL1        0.0738
     25 O          -2.5914   -2.3308    1.5287 O.2     1  UNL1       -0.1552
     26 O          -0.4651   -1.4754    2.4601 O.2     1  UNL1       -0.1552
     27 H          -0.3332    1.0233   -1.6094 H       1  UNL1        0.0253
     28 H          -0.6073    1.7035    0.0125 H       1  UNL1        0.0253
     29 H           1.0489    1.5578   -0.6233 H       1  UNL1        0.0253
     30 H           3.5146    0.5557   -0.7919 H       1  UNL1        0.0464
     31 H           2.3159    0.3589    0.5126 H       1  UNL1        0.0464
     32 H           4.6681   -0.1755    1.2431 H       1  UNL1        0.0280
     33 H           3.5518   -1.5516    1.4178 H       1  UNL1        0.0280
     34 H           5.4359   -1.0917   -0.9396 H       1  UNL1        0.0266
     35 H           5.7079   -2.2476    0.3861 H       1  UNL1        0.0266
     36 H           4.7376   -3.3937   -1.5771 H       1  UNL1        0.0280
     37 H           3.5920   -3.4139   -0.2142 H       1  UNL1        0.0280
     38 H           2.3852   -2.8023   -2.2477 H       1  UNL1        0.0464
     39 H           3.5568   -1.5033   -2.5900 H       1  UNL1        0.0464
     40 H          -2.0400   -3.1677   -0.7238 H       1  UNL1        0.0636
     41 H          -3.5521   -3.4695   -2.6422 H       1  UNL1        0.0618
     42 H          -4.3919   -1.5094   -3.8704 H       1  UNL1        0.0623
     43 H          -2.2151    1.0712   -1.2656 H       1  UNL1        0.0642
     44 H          -3.4542    0.3498    1.7844 H       1  UNL1        0.0482
     45 H          -2.7695    0.0792    3.4050 H       1  UNL1        0.0482
     46 H          -1.8914    1.0799    2.2236 H       1  UNL1        0.0482
@<TRIPOS>BOND
     1     1     2    1
     2     1    27    1
     3     1    28    1
     4     1    29    1
     5     2     3    1
     6     2     4    1
     7     2    12    1
     8     4     5    2
     9     4     6   am
    10     6    11    1
    11     6     7    1
    12     7     8    1
    13     7    30    1
    14     7    31    1
    15     8     9    1
    16     8    32    1
    17     8    33    1
    18     9    10    1
    19     9    34    1
    20     9    35    1
    21    10    11    1
    22    10    36    1
    23    10    37    1
    24    11    38    1
    25    11    39    1
    26    12    13    1
    27    23    12    1
    28    13    22   ar
    29    13    14   ar
    30    14    15   ar
    31    14    40    1
    32    15    16   ar
    33    15    41    1
    34    16    17   ar
    35    16    42    1
    36    17    18    1
    37    17    22   ar
    38    18    19    1
    39    18    20    1
    40    18    21    1
    41    22    43    1
    42    23    24    1
    43    23    25    2
    44    23    26    2
    45    24    44    1
    46    24    45    1
    47    24    46    1
