@<TRIPOS>MOLECULE
ZINC000253430671
 35 36 0 0 0
SMALL
GASTEIGER

@<TRIPOS>ATOM
      1 O          -0.0015   -0.2419    0.4075 O.2     1  UNL1       -0.1527
      2 S          -0.0011    1.1752    0.3024 S.O2    1  UNL1        0.0646
      3 O           1.1887    1.9510    0.2595 O.2     1  UNL1       -0.1527
      4 C          -0.9029    1.5660   -1.1600 C.ar    1  UNL1        0.1472
      5 C          -0.3846    2.4642   -2.0724 C.ar    1  UNL1       -0.0201
      6 C          -1.0921    2.7717   -3.2201 C.ar    1  UNL1        0.0569
      7 C          -0.5242    3.7519   -4.2139 C.3     1  UNL1        0.4175
      8 F           0.2501    3.0656   -5.1555 F       1  UNL1       -0.1659
      9 F          -1.5701    4.4152   -4.8645 F       1  UNL1       -0.1659
     10 F           0.2747    4.6850   -3.5442 F       1  UNL1       -0.1659
     11 C          -2.3192    2.1810   -3.4575 C.ar    1  UNL1       -0.0466
     12 C          -2.8419    1.2817   -2.5481 C.ar    1  UNL1       -0.0177
     13 C          -2.1317    0.9675   -1.3987 C.ar    1  UNL1        0.1431
     14 O          -2.6436    0.0832   -0.5027 O.3     1  UNL1       -0.5048
     15 N          -0.8812    1.7396    1.5866 N.3     1  UNL1       -0.1712
     16 C          -1.8122    0.9431    2.4066 C.3     1  UNL1        0.0209
     17 C          -2.7953    1.9779    3.0085 C.3     1  UNL1       -0.0370
     18 C          -1.8537    3.1809    3.2799 C.3     1  UNL1       -0.0324
     19 C          -0.8588    3.1164    2.1019 C.3     1  UNL1        0.0550
     20 H          -1.1688    3.8059    1.3166 H       1  UNL1        0.0502
     21 C           0.5463    3.4785    2.5871 C.3     1  UNL1        0.0614
     22 O           0.9191    2.6093    3.6584 O.3     1  UNL1       -0.3934
     23 H           0.5739    2.9269   -1.8891 H       1  UNL1        0.0644
     24 H          -2.8700    2.4231   -4.3544 H       1  UNL1        0.0624
     25 H          -3.8008    0.8208   -2.7339 H       1  UNL1        0.0655
     26 H          -2.3354   -0.8250   -0.6265 H       1  UNL1        0.2922
     27 H          -2.3490    0.2274    1.7839 H       1  UNL1        0.0444
     28 H          -1.2722    0.4267    3.2001 H       1  UNL1        0.0444
     29 H          -3.5712    2.2433    2.2904 H       1  UNL1        0.0279
     30 H          -3.2332    1.6076    3.9355 H       1  UNL1        0.0279
     31 H          -2.4110    4.1176    3.2662 H       1  UNL1        0.0282
     32 H          -1.3314    3.0555    4.2284 H       1  UNL1        0.0282
     33 H           1.2543    3.3672    1.7658 H       1  UNL1        0.0573
     34 H           0.5551    4.5108    2.9369 H       1  UNL1        0.0573
     35 H           1.8007    2.7818    4.0162 H       1  UNL1        0.2095
@<TRIPOS>BOND
     1     1     2    2
     2     2     3    2
     3     2     4    1
     4     2    15    1
     5     4    13   ar
     6     4     5   ar
     7     5     6   ar
     8     5    23    1
     9     6     7    1
    10     6    11   ar
    11     7     8    1
    12     7     9    1
    13     7    10    1
    14    11    12   ar
    15    11    24    1
    16    12    13   ar
    17    12    25    1
    18    13    14    1
    19    14    26    1
    20    15    19    1
    21    15    16    1
    22    16    17    1
    23    16    27    1
    24    16    28    1
    25    17    18    1
    26    17    29    1
    27    17    30    1
    28    18    19    1
    29    18    31    1
    30    18    32    1
    31    19    20    1
    32    19    21    1
    33    21    22    1
    34    21    33    1
    35    21    34    1
    36    22    35    1
