@<TRIPOS>MOLECULE
ZINC000013134639
 60 62 0 0 0
SMALL
GASTEIGER

@<TRIPOS>ATOM
      1 C           0.0547    1.5894    0.0259 C.3     1  UNL1       -0.0613
      2 C           0.0624    0.0594    0.0188 C.3     1  UNL1       -0.0305
      3 C           0.7606   -0.4336   -1.2223 C.ar    1  UNL1       -0.0475
      4 C           0.0363   -0.6565   -2.3790 C.ar    1  UNL1       -0.0568
      5 C           0.6733   -1.1084   -3.5181 C.ar    1  UNL1       -0.0400
      6 C           2.0427   -1.3385   -3.5011 C.ar    1  UNL1        0.0363
      7 N           2.6911   -1.7959   -4.6536 N.am    1  UNL1       -0.2706
      8 C           4.1438   -1.9667   -4.7739 C.3     1  UNL1        0.0331
      9 C           4.4242   -2.0549   -6.2905 C.3     1  UNL1        0.0807
     10 H           4.6575   -1.0728   -6.7018 H       1  UNL1        0.0434
     11 C           5.5330   -3.0342   -6.5779 C.2     1  UNL1        0.3126
     12 O           6.0692   -3.6234   -5.6694 O.2     1  UNL1       -0.2505
     13 O           5.9250   -3.2518   -7.8431 O.3     1  UNL1       -0.4549
     14 C           6.9986   -4.2083   -8.0453 C.3     1  UNL1        0.1683
     15 C           7.3004   -4.3210   -9.5174 C.2     1  UNL1        0.2549
     16 O           6.6726   -3.6601  -10.3175 O.2     1  UNL1       -0.2717
     17 N           8.2681   -5.1560   -9.9450 N.am    1  UNL1       -0.2827
     18 C           8.6265   -5.1774  -11.2974 C.ar    1  UNL1        0.0336
     19 C           9.0030   -6.3712  -11.8987 C.ar    1  UNL1       -0.0386
     20 C           9.3563   -6.3889  -13.2337 C.ar    1  UNL1       -0.0336
     21 C           9.3359   -5.2195  -13.9714 C.ar    1  UNL1        0.1056
     22 S           9.7879   -5.2463  -15.6743 S.O2    1  UNL1        0.0604
     23 O          10.2035   -3.9270  -15.9999 O.2     1  UNL1       -0.1529
     24 O          10.6153   -6.3879  -15.8519 O.2     1  UNL1       -0.1529
     25 N           8.4072   -5.5296  -16.5435 N.3     1  UNL1       -0.1827
     26 C           7.5874   -4.4058  -17.0032 C.3     1  UNL1        0.0086
     27 C           8.0055   -6.9041  -16.8529 C.3     1  UNL1        0.0086
     28 C           8.9611   -4.0292  -13.3758 C.ar    1  UNL1       -0.0336
     29 C           8.6011   -4.0058  -12.0426 C.ar    1  UNL1       -0.0386
     30 C           3.0720   -2.5744   -6.8315 C.3     1  UNL1        0.0389
     31 C           2.0631   -2.1407   -5.7909 C.2     1  UNL1        0.2206
     32 O           0.8627   -2.1027   -5.9607 O.2     1  UNL1       -0.2752
     33 C           2.7673   -1.1133   -2.3380 C.ar    1  UNL1       -0.0400
     34 C           2.1252   -0.6568   -1.2036 C.ar    1  UNL1       -0.0568
     35 H           1.0804    1.9580    0.0154 H       1  UNL1        0.0233
     36 H          -0.4715    1.9542   -0.8562 H       1  UNL1        0.0233
     37 H          -0.4504    1.9460    0.9236 H       1  UNL1        0.0233
     38 H           0.5886   -0.3053    0.9010 H       1  UNL1        0.0311
     39 H          -0.9634   -0.3091    0.0293 H       1  UNL1        0.0311
     40 H          -1.0286   -0.4773   -2.3915 H       1  UNL1        0.0621
     41 H           0.1070   -1.2829   -4.4210 H       1  UNL1        0.0636
     42 H           4.6613   -1.1092   -4.3439 H       1  UNL1        0.0477
     43 H           4.4579   -2.8853   -4.2782 H       1  UNL1        0.0477
     44 H           7.8900   -3.8712   -7.5163 H       1  UNL1        0.0796
     45 H           6.6947   -5.1821   -7.6611 H       1  UNL1        0.0796
     46 H           8.7160   -5.7422   -9.3152 H       1  UNL1        0.1549
     47 H           9.0199   -7.2847  -11.3228 H       1  UNL1        0.0637
     48 H           9.6492   -7.3170  -13.7019 H       1  UNL1        0.0638
     49 H           7.9257   -4.0890  -17.9898 H       1  UNL1        0.0408
     50 H           6.5441   -4.7161  -17.0591 H       1  UNL1        0.0408
     51 H           7.6827   -3.5762  -16.3027 H       1  UNL1        0.0408
     52 H           8.7325   -7.5986  -16.4320 H       1  UNL1        0.0408
     53 H           7.0235   -7.1012  -16.4228 H       1  UNL1        0.0408
     54 H           7.9615   -7.0351  -17.9341 H       1  UNL1        0.0408
     55 H           8.9461   -3.1176  -13.9546 H       1  UNL1        0.0638
     56 H           8.3085   -3.0758  -11.5779 H       1  UNL1        0.0637
     57 H           2.8477   -2.1207   -7.7968 H       1  UNL1        0.0367
     58 H           3.0863   -3.6612   -6.9138 H       1  UNL1        0.0367
     59 H           3.8324   -1.2914   -2.3216 H       1  UNL1        0.0636
     60 H           2.6881   -0.4815   -0.2988 H       1  UNL1        0.0621
@<TRIPOS>BOND
     1     1     2    1
     2     1    35    1
     3     1    36    1
     4     1    37    1
     5     2     3    1
     6     2    38    1
     7     2    39    1
     8     3    34   ar
     9     3     4   ar
    10     4     5   ar
    11     4    40    1
    12     5     6   ar
    13     5    41    1
    14     6     7    1
    15     6    33   ar
    16     7    31   am
    17     7     8    1
    18     8     9    1
    19     8    42    1
    20     8    43    1
    21     9    10    1
    22     9    11    1
    23     9    30    1
    24    11    12    2
    25    11    13    1
    26    13    14    1
    27    14    15    1
    28    14    44    1
    29    14    45    1
    30    15    16    2
    31    15    17   am
    32    17    18    1
    33    17    46    1
    34    18    29   ar
    35    18    19   ar
    36    19    20   ar
    37    19    47    1
    38    20    21   ar
    39    20    48    1
    40    21    22    1
    41    21    28   ar
    42    22    23    2
    43    22    24    2
    44    22    25    1
    45    25    26    1
    46    25    27    1
    47    26    49    1
    48    26    50    1
    49    26    51    1
    50    27    52    1
    51    27    53    1
    52    27    54    1
    53    28    29   ar
    54    28    55    1
    55    29    56    1
    56    30    31    1
    57    30    57    1
    58    30    58    1
    59    31    32    2
    60    33    34   ar
    61    33    59    1
    62    34    60    1
