@<TRIPOS>MOLECULE
ZINC000002869076
 46 48 0 0 0
SMALL
GASTEIGER

@<TRIPOS>ATOM
      1 C           1.2601   -0.7628   -0.2173 C.3     1  UNL1       -0.0016
      2 C          -0.0542   -0.0692    0.0327 C.2     1  UNL1        0.1604
      3 O          -0.0695    1.0844    0.4134 O.2     1  UNL1       -0.2925
      4 C          -1.2623   -0.7570   -0.1745 C.2     1  UNL1        0.0526
      5 C          -1.4113   -2.0624   -0.4892 C.2     1  UNL1        0.0201
      6 C          -0.2620   -3.0195   -0.6742 C.3     1  UNL1       -0.0257
      7 N          -2.7192   -2.4125   -0.6196 N.am    1  UNL1       -0.2683
      8 C          -3.1727   -3.7642   -0.9564 C.3     1  UNL1        0.0446
      9 C          -3.3783   -4.5551    0.3099 C.ar    1  UNL1       -0.0297
     10 C          -2.3335   -5.2833    0.8473 C.ar    1  UNL1       -0.0571
     11 C          -2.5221   -6.0088    2.0088 C.ar    1  UNL1       -0.0615
     12 C          -3.7555   -6.0056    2.6331 C.ar    1  UNL1       -0.0617
     13 C          -4.8001   -5.2766    2.0961 C.ar    1  UNL1       -0.0615
     14 C          -4.6102   -4.5477    0.9370 C.ar    1  UNL1       -0.0571
     15 C          -3.5494   -1.3748   -0.4039 C.2     1  UNL1        0.2571
     16 O          -4.7608   -1.3889   -0.4512 O.2     1  UNL1       -0.2722
     17 C          -2.6640   -0.1868   -0.0840 C.3     1  UNL1        0.2368
     18 N          -2.9394    0.3136    1.2650 N.am    1  UNL1       -0.2905
     19 C          -4.1653    0.7811    1.5732 C.2     1  UNL1        0.2173
     20 O          -5.0405    0.7875    0.7336 O.2     1  UNL1       -0.2755
     21 C          -4.4486    1.2958    2.9609 C.3     1  UNL1        0.0356
     22 C          -4.6952    2.7973    3.1208 C.3     1  UNL1       -0.0412
     23 C          -5.8596    1.8131    3.2482 C.3     1  UNL1       -0.0412
     24 C          -2.8544    0.9220   -1.1210 C.3     1  UNL1        0.4237
     25 F          -4.2156    1.2237   -1.2364 F       1  UNL1       -0.1675
     26 F          -2.1563    2.0645   -0.7156 F       1  UNL1       -0.1675
     27 F          -2.3655    0.4915   -2.3591 F       1  UNL1       -0.1675
     28 H           2.0792   -0.1048    0.0730 H       1  UNL1        0.0309
     29 H           1.3048   -1.6796    0.3706 H       1  UNL1        0.0309
     30 H           1.3471   -1.0056   -1.2763 H       1  UNL1        0.0309
     31 H           0.0425   -3.4134    0.2954 H       1  UNL1        0.0290
     32 H          -0.5737   -3.8414   -1.3187 H       1  UNL1        0.0290
     33 H           0.5766   -2.4958   -1.1332 H       1  UNL1        0.0290
     34 H          -4.1127   -3.7060   -1.5051 H       1  UNL1        0.0518
     35 H          -2.4213   -4.2562   -1.5740 H       1  UNL1        0.0518
     36 H          -1.3699   -5.2858    0.3596 H       1  UNL1        0.0621
     37 H          -1.7060   -6.5783    2.4283 H       1  UNL1        0.0618
     38 H          -3.9030   -6.5729    3.5401 H       1  UNL1        0.0618
     39 H          -5.7637   -5.2744    2.5837 H       1  UNL1        0.0618
     40 H          -5.4263   -3.9782    0.5175 H       1  UNL1        0.0621
     41 H          -2.2394    0.3084    1.9365 H       1  UNL1        0.1503
     42 H          -3.9267    0.7823    3.7684 H       1  UNL1        0.0394
     43 H          -4.3353    3.2720    4.0336 H       1  UNL1        0.0273
     44 H          -4.6524    3.4129    2.2222 H       1  UNL1        0.0273
     45 H          -6.5829    1.7811    2.4334 H       1  UNL1        0.0273
     46 H          -6.2658    1.6403    4.2448 H       1  UNL1        0.0273
@<TRIPOS>BOND
     1     1     2    1
     2     1    28    1
     3     1    29    1
     4     1    30    1
     5     2     3    2
     6     2     4    1
     7     4    17    1
     8     4     5    2
     9     5     6    1
    10     5     7    1
    11     6    31    1
    12     6    32    1
    13     6    33    1
    14     7     8    1
    15     7    15   am
    16     8     9    1
    17     8    34    1
    18     8    35    1
    19     9    14   ar
    20     9    10   ar
    21    10    11   ar
    22    10    36    1
    23    11    12   ar
    24    11    37    1
    25    12    13   ar
    26    12    38    1
    27    13    14   ar
    28    13    39    1
    29    14    40    1
    30    15    16    2
    31    15    17    1
    32    17    18    1
    33    17    24    1
    34    18    19   am
    35    18    41    1
    36    19    20    2
    37    19    21    1
    38    21    23    1
    39    21    22    1
    40    21    42    1
    41    22    23    1
    42    22    43    1
    43    22    44    1
    44    23    45    1
    45    23    46    1
    46    24    25    1
    47    24    26    1
    48    24    27    1
