@<TRIPOS>MOLECULE
ZINC000408608168
 65 67 0 0 0
SMALL
GASTEIGER

@<TRIPOS>ATOM
      1 C          -3.4514   -8.8330    0.6240 C.3     1  UNL1       -0.0397
      2 C          -2.5376   -7.6468    0.4537 C.ar    1  UNL1       -0.0504
      3 C          -2.2502   -6.8348    1.5349 C.ar    1  UNL1       -0.0585
      4 C          -1.4120   -5.7467    1.3786 C.ar    1  UNL1       -0.0570
      5 C          -0.8608   -5.4710    0.1413 C.ar    1  UNL1       -0.0316
      6 C           0.0526   -4.2845   -0.0292 C.3     1  UNL1        0.0460
      7 N           1.4465   -4.7211    0.0837 N.3     1  UNL1       -0.1635
      8 C           2.0621   -4.8719    1.4045 C.3     1  UNL1        0.0971
      9 C           1.7411   -6.2374    1.9554 C.2     1  UNL1        0.2290
     10 O           1.0646   -7.0086    1.3085 O.2     1  UNL1       -0.2743
     11 N           2.2056   -6.6016    3.1670 N.am    1  UNL1       -0.3116
     12 C           1.8935   -7.9290    3.7026 C.3     1  UNL1        0.0206
     13 H           1.8647   -8.6520    2.8874 H       1  UNL1        0.0495
     14 C           0.5317   -7.8907    4.3988 C.3     1  UNL1       -0.0466
     15 C           2.9699   -8.3386    4.7098 C.3     1  UNL1       -0.0308
     16 C           4.3095   -8.4980    3.9881 C.3     1  UNL1       -0.0260
     17 C           5.3698   -8.9014    4.9801 C.ar    1  UNL1       -0.0473
     18 C           6.0996   -7.9331    5.6439 C.ar    1  UNL1       -0.0586
     19 C           7.0721   -8.3031    6.5539 C.ar    1  UNL1       -0.0615
     20 C           7.3145   -9.6415    6.8005 C.ar    1  UNL1       -0.0617
     21 C           6.5840  -10.6099    6.1375 C.ar    1  UNL1       -0.0615
     22 C           5.6086  -10.2398    5.2306 C.ar    1  UNL1       -0.0586
     23 S           2.3262   -5.0441   -1.2816 S.O2    1  UNL1        0.0616
     24 O           3.2845   -6.0283   -0.9180 O.2     1  UNL1       -0.1528
     25 O           1.3857   -5.2256   -2.3313 O.2     1  UNL1       -0.1528
     26 C           3.2345   -3.5861   -1.6739 C.ar    1  UNL1        0.1055
     27 C           2.7216   -2.6745   -2.5776 C.ar    1  UNL1       -0.0351
     28 C           3.4342   -1.5306   -2.8854 C.ar    1  UNL1       -0.0570
     29 C           4.6595   -1.2982   -2.2891 C.ar    1  UNL1       -0.0503
     30 C           5.4366   -0.0515   -2.6249 C.3     1  UNL1       -0.0397
     31 C           5.1718   -2.2092   -1.3843 C.ar    1  UNL1       -0.0570
     32 C           4.4574   -3.3512   -1.0737 C.ar    1  UNL1       -0.0351
     33 C          -1.1470   -6.2838   -0.9396 C.ar    1  UNL1       -0.0570
     34 C          -1.9822   -7.3741   -0.7825 C.ar    1  UNL1       -0.0585
     35 H          -2.8629   -9.7085    0.8984 H       1  UNL1        0.0278
     36 H          -4.1774   -8.6225    1.4094 H       1  UNL1        0.0278
     37 H          -3.9748   -9.0259   -0.3124 H       1  UNL1        0.0278
     38 H          -2.6809   -7.0503    2.5016 H       1  UNL1        0.0620
     39 H          -1.1881   -5.1119    2.2231 H       1  UNL1        0.0621
     40 H          -0.1101   -3.8387   -1.0104 H       1  UNL1        0.0493
     41 H          -0.1611   -3.5473    0.7448 H       1  UNL1        0.0493
     42 H           3.1428   -4.7606    1.3165 H       1  UNL1        0.0539
     43 H           1.6716   -4.1079    2.0768 H       1  UNL1        0.0539
     44 H           2.7467   -5.9847    3.6845 H       1  UNL1        0.1490
     45 H          -0.2352   -7.5989    3.6812 H       1  UNL1        0.0247
     46 H           0.2995   -8.8784    4.7972 H       1  UNL1        0.0247
     47 H           0.5605   -7.1677    5.2139 H       1  UNL1        0.0247
     48 H           3.0601   -7.5703    5.4777 H       1  UNL1        0.0286
     49 H           2.6922   -9.2850    5.1736 H       1  UNL1        0.0286
     50 H           4.2193   -9.2663    3.2201 H       1  UNL1        0.0314
     51 H           4.5873   -7.5515    3.5242 H       1  UNL1        0.0314
     52 H           5.9102   -6.8874    5.4512 H       1  UNL1        0.0620
     53 H           7.6428   -7.5466    7.0719 H       1  UNL1        0.0618
     54 H           8.0748   -9.9307    7.5110 H       1  UNL1        0.0618
     55 H           6.7736  -11.6555    6.3299 H       1  UNL1        0.0618
     56 H           5.0379  -10.9963    4.7126 H       1  UNL1        0.0620
     57 H           1.7643   -2.8560   -3.0435 H       1  UNL1        0.0637
     58 H           3.0338   -0.8187   -3.5919 H       1  UNL1        0.0621
     59 H           5.1560    0.7475   -1.9386 H       1  UNL1        0.0278
     60 H           6.5039   -0.2524   -2.5318 H       1  UNL1        0.0278
     61 H           5.2120    0.2522   -3.6474 H       1  UNL1        0.0278
     62 H           6.1289   -2.0275   -0.9182 H       1  UNL1        0.0621
     63 H           4.8576   -4.0629   -0.3668 H       1  UNL1        0.0637
     64 H          -0.7161   -6.0686   -1.9062 H       1  UNL1        0.0621
     65 H          -2.2058   -8.0091   -1.6269 H       1  UNL1        0.0620
@<TRIPOS>BOND
     1     1     2    1
     2     1    35    1
     3     1    36    1
     4     1    37    1
     5     2    34   ar
     6     2     3   ar
     7     3     4   ar
     8     3    38    1
     9     4     5   ar
    10     4    39    1
    11     5     6    1
    12     5    33   ar
    13     6     7    1
    14     6    40    1
    15     6    41    1
    16     7     8    1
    17    23     7    1
    18     8     9    1
    19     8    42    1
    20     8    43    1
    21     9    10    2
    22     9    11   am
    23    11    12    1
    24    11    44    1
    25    12    13    1
    26    12    14    1
    27    12    15    1
    28    14    45    1
    29    14    46    1
    30    14    47    1
    31    15    16    1
    32    15    48    1
    33    15    49    1
    34    16    17    1
    35    16    50    1
    36    16    51    1
    37    17    22   ar
    38    17    18   ar
    39    18    19   ar
    40    18    52    1
    41    19    20   ar
    42    19    53    1
    43    20    21   ar
    44    20    54    1
    45    21    22   ar
    46    21    55    1
    47    22    56    1
    48    23    24    2
    49    23    25    2
    50    23    26    1
    51    26    32   ar
    52    26    27   ar
    53    27    28   ar
    54    27    57    1
    55    28    29   ar
    56    28    58    1
    57    29    30    1
    58    29    31   ar
    59    30    59    1
    60    30    60    1
    61    30    61    1
    62    31    32   ar
    63    31    62    1
    64    32    63    1
    65    33    34   ar
    66    33    64    1
    67    34    65    1
