@<TRIPOS>MOLECULE
ZINC000012748038
 47 49 0 0 0
SMALL
GASTEIGER

@<TRIPOS>ATOM
      1 O           0.0913    0.2584   -0.5129 O.2     1  UNL1       -0.2740
      2 C          -0.0806    1.3338    0.0209 C.2     1  UNL1        0.2322
      3 N           0.9419    1.9436    0.6526 N.am    1  UNL1       -0.3099
      4 C           2.2609    1.3075    0.6945 C.3     1  UNL1        0.0369
      5 C           3.2193    2.1879    1.4544 C.ar    1  UNL1       -0.0303
      6 C           3.9539    3.1489    0.7853 C.ar    1  UNL1       -0.0565
      7 C           4.8330    3.9565    1.4824 C.ar    1  UNL1       -0.0498
      8 C           4.9771    3.8034    2.8486 C.ar    1  UNL1        0.0548
      9 C           5.9358    4.6835    3.6085 C.3     1  UNL1        0.4174
     10 F           5.2684    5.8334    4.0437 F       1  UNL1       -0.1659
     11 F           6.4326    3.9858    4.7147 F       1  UNL1       -0.1659
     12 F           6.9966    5.0483    2.7724 F       1  UNL1       -0.1659
     13 C           4.2415    2.8433    3.5180 C.ar    1  UNL1       -0.0498
     14 C           3.3596    2.0383    2.8215 C.ar    1  UNL1       -0.0565
     15 C          -1.4359    1.9910   -0.0275 C.3     1  UNL1        0.1078
     16 H          -1.5942    2.5806    0.8755 H       1  UNL1        0.0575
     17 C          -1.5346    2.8992   -1.2713 C.3     1  UNL1       -0.0260
     18 C          -2.2649    1.9984   -2.3022 C.3     1  UNL1       -0.0366
     19 C          -3.2404    1.2116   -1.3918 C.3     1  UNL1        0.0214
     20 N          -2.4842    0.9670   -0.1464 N.3     1  UNL1       -0.1647
     21 S          -2.7688   -0.2581    0.9308 S.O2    1  UNL1        0.0615
     22 O          -3.3894   -1.3034    0.1949 O.2     1  UNL1       -0.1528
     23 O          -1.5656   -0.4335    1.6662 O.2     1  UNL1       -0.1528
     24 C          -3.9724    0.3252    2.0779 C.ar    1  UNL1        0.1056
     25 C          -3.5740    1.0253    3.2014 C.ar    1  UNL1       -0.0340
     26 C          -4.5176    1.4831    4.1015 C.ar    1  UNL1       -0.0415
     27 C          -5.8612    1.2406    3.8780 C.ar    1  UNL1        0.0411
     28 CL         -7.0471    1.8158    5.0079 Cl      1  UNL1       -0.0835
     29 C          -6.2594    0.5399    2.7535 C.ar    1  UNL1       -0.0415
     30 C          -5.3153    0.0875    1.8511 C.ar    1  UNL1       -0.0340
     31 H           0.8044    2.8037    1.0796 H       1  UNL1        0.1491
     32 H           2.1826    0.3411    1.1924 H       1  UNL1        0.0512
     33 H           2.6275    1.1639   -0.3219 H       1  UNL1        0.0512
     34 H           3.8412    3.2686   -0.2821 H       1  UNL1        0.0621
     35 H           5.4074    4.7068    0.9595 H       1  UNL1        0.0623
     36 H           4.3539    2.7239    4.5854 H       1  UNL1        0.0623
     37 H           2.7849    1.2882    3.3444 H       1  UNL1        0.0621
     38 H          -2.1232    3.7901   -1.0525 H       1  UNL1        0.0286
     39 H          -0.5419    3.1701   -1.6308 H       1  UNL1        0.0286
     40 H          -2.8091    2.5999   -3.0303 H       1  UNL1        0.0279
     41 H          -1.5651    1.3259   -2.7983 H       1  UNL1        0.0279
     42 H          -4.1290    1.8075   -1.1835 H       1  UNL1        0.0444
     43 H          -3.5173    0.2668   -1.8595 H       1  UNL1        0.0444
     44 H          -2.5250    1.2142    3.3759 H       1  UNL1        0.0637
     45 H          -4.2061    2.0297    4.9793 H       1  UNL1        0.0633
     46 H          -7.3082    0.3500    2.5786 H       1  UNL1        0.0633
     47 H          -5.6260   -0.4592    0.9731 H       1  UNL1        0.0637
@<TRIPOS>BOND
     1     1     2    2
     2     2     3   am
     3     2    15    1
     4     3     4    1
     5     3    31    1
     6     4     5    1
     7     4    32    1
     8     4    33    1
     9     5    14   ar
    10     5     6   ar
    11     6     7   ar
    12     6    34    1
    13     7     8   ar
    14     7    35    1
    15     8     9    1
    16     8    13   ar
    17     9    10    1
    18     9    11    1
    19     9    12    1
    20    13    14   ar
    21    13    36    1
    22    14    37    1
    23    15    16    1
    24    15    20    1
    25    15    17    1
    26    17    18    1
    27    17    38    1
    28    17    39    1
    29    18    19    1
    30    18    40    1
    31    18    41    1
    32    19    20    1
    33    19    42    1
    34    19    43    1
    35    21    20    1
    36    21    22    2
    37    21    23    2
    38    21    24    1
    39    24    30   ar
    40    24    25   ar
    41    25    26   ar
    42    25    44    1
    43    26    27   ar
    44    26    45    1
    45    27    28    1
    46    27    29   ar
    47    29    30   ar
    48    29    46    1
    49    30    47    1
