@<TRIPOS>MOLECULE
ZINC000016650622
 45 46 0 0 0
SMALL
GASTEIGER

@<TRIPOS>ATOM
      1 C          -0.0178    1.4608    0.0101 C.3     1  UNL1        0.0086
      2 N           0.0021   -0.0041    0.0020 N.3     1  UNL1       -0.1827
      3 C           0.0241   -0.7433    1.2666 C.3     1  UNL1        0.0086
      4 S          -0.0004   -0.8243   -1.4366 S.O2    1  UNL1        0.0604
      5 O          -0.5247   -2.1160   -1.1611 O.2     1  UNL1       -0.1529
      6 O          -0.5660    0.0551   -2.3989 O.2     1  UNL1       -0.1529
      7 C           1.6816   -1.0597   -1.9056 C.ar    1  UNL1        0.1057
      8 C           2.3224   -0.1085   -2.6779 C.ar    1  UNL1       -0.0319
      9 C           3.6411   -0.2907   -3.0469 C.ar    1  UNL1       -0.0181
     10 C           4.3226   -1.4291   -2.6417 C.ar    1  UNL1        0.1213
     11 O           5.6201   -1.6104   -3.0031 O.3     1  UNL1       -0.4828
     12 C           6.2587   -2.8058   -2.5500 C.3     1  UNL1        0.1651
     13 C           7.6821   -2.8332   -3.0443 C.2     1  UNL1        0.2507
     14 O           8.1077   -1.9191   -3.7182 O.2     1  UNL1       -0.2721
     15 N           8.4821   -3.8735   -2.7374 N.am    1  UNL1       -0.3100
     16 C           9.8658   -3.9002   -3.2179 C.3     1  UNL1        0.0380
     17 C          10.5496   -5.1800   -2.7328 C.3     1  UNL1        0.0742
     18 H          10.0167   -6.0563   -3.1020 H       1  UNL1        0.0611
     19 C          12.0262   -5.2116   -3.2013 C.3     1  UNL1       -0.0231
     20 C          12.6546   -6.1470   -2.1325 C.3     1  UNL1       -0.0271
     21 C          11.8419   -5.7928   -0.8686 C.3     1  UNL1        0.0482
     22 O          10.6087   -5.2005   -1.2977 O.3     1  UNL1       -0.3750
     23 C           3.6776   -2.3818   -1.8665 C.ar    1  UNL1       -0.0181
     24 C           2.3603   -2.1926   -1.4960 C.ar    1  UNL1       -0.0319
     25 H           1.0048    1.8381    0.0023 H       1  UNL1        0.0408
     26 H          -0.5450    1.8219   -0.8730 H       1  UNL1        0.0408
     27 H          -0.5280    1.8123    0.9069 H       1  UNL1        0.0408
     28 H           0.0224   -0.0395    2.0990 H       1  UNL1        0.0408
     29 H          -0.8567   -1.3823    1.3294 H       1  UNL1        0.0408
     30 H           0.9230   -1.3581    1.3125 H       1  UNL1        0.0408
     31 H           1.7914    0.7776   -2.9931 H       1  UNL1        0.0638
     32 H           4.1409    0.4522   -3.6507 H       1  UNL1        0.0655
     33 H           6.2520   -2.8307   -1.4603 H       1  UNL1        0.0795
     34 H           5.7231   -3.6729   -2.9365 H       1  UNL1        0.0795
     35 H           8.1417   -4.6046   -2.1984 H       1  UNL1        0.1489
     36 H           9.8725   -3.8753   -4.3076 H       1  UNL1        0.0487
     37 H          10.4014   -3.0331   -2.8314 H       1  UNL1        0.0487
     38 H          12.1126   -5.6416   -4.1992 H       1  UNL1        0.0291
     39 H          12.4715   -4.2175   -3.1640 H       1  UNL1        0.0291
     40 H          12.5151   -7.1937   -2.4028 H       1  UNL1        0.0288
     41 H          13.7111   -5.9193   -1.9908 H       1  UNL1        0.0288
     42 H          11.6365   -6.6970   -0.2957 H       1  UNL1        0.0560
     43 H          12.4002   -5.0845   -0.2565 H       1  UNL1        0.0560
     44 H           4.2059   -3.2690   -1.5500 H       1  UNL1        0.0655
     45 H           1.8578   -2.9338   -0.8923 H       1  UNL1        0.0638
@<TRIPOS>BOND
     1     1     2    1
     2     1    25    1
     3     1    26    1
     4     1    27    1
     5     2     3    1
     6     4     2    1
     7     3    28    1
     8     3    29    1
     9     3    30    1
    10     4     5    2
    11     4     6    2
    12     4     7    1
    13     7    24   ar
    14     7     8   ar
    15     8     9   ar
    16     8    31    1
    17     9    10   ar
    18     9    32    1
    19    10    11    1
    20    10    23   ar
    21    11    12    1
    22    12    13    1
    23    12    33    1
    24    12    34    1
    25    13    14    2
    26    13    15   am
    27    15    16    1
    28    15    35    1
    29    16    17    1
    30    16    36    1
    31    16    37    1
    32    17    18    1
    33    17    22    1
    34    17    19    1
    35    19    20    1
    36    19    38    1
    37    19    39    1
    38    20    21    1
    39    20    40    1
    40    20    41    1
    41    21    22    1
    42    21    42    1
    43    21    43    1
    44    23    24   ar
    45    23    44    1
    46    24    45    1
