@<TRIPOS>MOLECULE
ZINC000408771847
 54 55 0 0 0
SMALL
GASTEIGER

@<TRIPOS>ATOM
      1 C           0.9581   -5.8241  -10.0693 C.3     1  UNL1        0.0790
      2 O           1.5514   -4.5301   -9.9441 O.3     1  UNL1       -0.4915
      3 C           1.7956   -4.0822   -8.6835 C.ar    1  UNL1        0.1616
      4 C           1.4767   -4.8730   -7.5919 C.ar    1  UNL1       -0.0145
      5 C           1.7261   -4.4162   -6.3107 C.ar    1  UNL1       -0.0317
      6 C           2.2930   -3.1709   -6.1159 C.ar    1  UNL1        0.1092
      7 S           2.6078   -2.5944   -4.4809 S.O2    1  UNL1        0.0617
      8 O           2.5186   -1.1771   -4.5311 O.2     1  UNL1       -0.1528
      9 O           1.8139   -3.3929   -3.6141 O.2     1  UNL1       -0.1528
     10 N           4.1864   -2.9515   -4.1306 N.3     1  UNL1       -0.1635
     11 C           4.5423   -4.2800   -3.6261 C.3     1  UNL1        0.0971
     12 C           4.9754   -5.1542   -4.7747 C.2     1  UNL1        0.2290
     13 O           4.9858   -4.7110   -5.9036 O.2     1  UNL1       -0.2743
     14 N           5.3513   -6.4283   -4.5475 N.am    1  UNL1       -0.3119
     15 C           5.7723   -7.2781   -5.6641 C.3     1  UNL1        0.0175
     16 C           6.6990   -8.3796   -5.1455 C.3     1  UNL1       -0.0469
     17 C           4.5413   -7.9119   -6.3151 C.3     1  UNL1       -0.0469
     18 C           5.2271   -1.9389   -4.3253 C.3     1  UNL1        0.0460
     19 C           5.4921   -1.2336   -3.0201 C.ar    1  UNL1       -0.0317
     20 C           4.8523   -0.0415   -2.7364 C.ar    1  UNL1       -0.0573
     21 C           5.0954    0.6054   -1.5392 C.ar    1  UNL1       -0.0615
     22 C           5.9779    0.0601   -0.6256 C.ar    1  UNL1       -0.0617
     23 C           6.6170   -1.1325   -0.9090 C.ar    1  UNL1       -0.0615
     24 C           6.3706   -1.7816   -2.1043 C.ar    1  UNL1       -0.0573
     25 C           2.6142   -2.3766   -7.2013 C.ar    1  UNL1        0.0101
     26 C           2.3718   -2.8303   -8.4875 C.ar    1  UNL1        0.1633
     27 O           2.6871   -2.0504   -9.5560 O.3     1  UNL1       -0.4914
     28 C           3.2659   -0.7736   -9.2789 C.3     1  UNL1        0.0790
     29 H           1.6118   -6.5689   -9.6153 H       1  UNL1        0.0660
     30 H          -0.0074   -5.8316   -9.5636 H       1  UNL1        0.0660
     31 H           0.8176   -6.0589  -11.1244 H       1  UNL1        0.0660
     32 H           1.0329   -5.8462   -7.7414 H       1  UNL1        0.0656
     33 H           1.4769   -5.0338   -5.4605 H       1  UNL1        0.0638
     34 H           5.3591   -4.1899   -2.9100 H       1  UNL1        0.0539
     35 H           3.6771   -4.7264   -3.1360 H       1  UNL1        0.0539
     36 H           5.3430   -6.7828   -3.6446 H       1  UNL1        0.1490
     37 H           6.3024   -6.6741   -6.4005 H       1  UNL1        0.0493
     38 H           6.1690   -8.9835   -4.4091 H       1  UNL1        0.0247
     39 H           7.0123   -9.0118   -5.9764 H       1  UNL1        0.0247
     40 H           7.5761   -7.9280   -4.6818 H       1  UNL1        0.0247
     41 H           3.8811   -7.1272   -6.6845 H       1  UNL1        0.0247
     42 H           4.8545   -8.5441   -7.1459 H       1  UNL1        0.0247
     43 H           4.0112   -8.5159   -5.5786 H       1  UNL1        0.0247
     44 H           6.1421   -2.4200   -4.6706 H       1  UNL1        0.0493
     45 H           4.8946   -1.2145   -5.0688 H       1  UNL1        0.0493
     46 H           4.1628    0.3846   -3.4501 H       1  UNL1        0.0621
     47 H           4.5961    1.5372   -1.3178 H       1  UNL1        0.0618
     48 H           6.1683    0.5659    0.3095 H       1  UNL1        0.0618
     49 H           7.3067   -1.5584   -0.1953 H       1  UNL1        0.0618
     50 H           6.8699   -2.7133   -2.3257 H       1  UNL1        0.0621
     51 H           3.0572   -1.4039   -7.0463 H       1  UNL1        0.0675
     52 H           3.4684   -0.2553  -10.2162 H       1  UNL1        0.0660
     53 H           2.5731   -0.1830   -8.6795 H       1  UNL1        0.0660
     54 H           4.1977   -0.9085   -8.7297 H       1  UNL1        0.0660
@<TRIPOS>BOND
     1     1     2    1
     2     1    29    1
     3     1    30    1
     4     1    31    1
     5     2     3    1
     6     3    26   ar
     7     3     4   ar
     8     4     5   ar
     9     4    32    1
    10     5     6   ar
    11     5    33    1
    12     6     7    1
    13     6    25   ar
    14     7     8    2
    15     7     9    2
    16     7    10    1
    17    10    11    1
    18    10    18    1
    19    11    12    1
    20    11    34    1
    21    11    35    1
    22    12    13    2
    23    12    14   am
    24    14    15    1
    25    14    36    1
    26    15    16    1
    27    15    17    1
    28    15    37    1
    29    16    38    1
    30    16    39    1
    31    16    40    1
    32    17    41    1
    33    17    42    1
    34    17    43    1
    35    18    19    1
    36    18    44    1
    37    18    45    1
    38    19    24   ar
    39    19    20   ar
    40    20    21   ar
    41    20    46    1
    42    21    22   ar
    43    21    47    1
    44    22    23   ar
    45    22    48    1
    46    23    24   ar
    47    23    49    1
    48    24    50    1
    49    25    26   ar
    50    25    51    1
    51    26    27    1
    52    27    28    1
    53    28    52    1
    54    28    53    1
    55    28    54    1
