@<TRIPOS>MOLECULE
ZINC000112511459
 42 43 0 0 0
SMALL
GASTEIGER

@<TRIPOS>ATOM
      1 C          -0.0187    1.5258    0.0104 C.3     1  UNL1       -0.0214
      2 C           0.0021   -0.0041    0.0020 C.3     1  UNL1       -0.0231
      3 H          -1.0205   -0.3814    0.0098 H       1  UNL1        0.0850
      4 N           0.6897   -0.4778   -1.2066 N.4     1  UNL1        0.2208
      5 H           1.6363   -0.1286   -1.2138 H       1  UNL1        0.1997
      6 H           0.7033   -1.4867   -1.2121 H       1  UNL1        0.1997
      7 H           0.2017   -0.1436   -2.0240 H       1  UNL1        0.1997
      8 C           0.7421   -0.5109    1.2415 C.3     1  UNL1        0.0161
      9 H           0.2322   -0.1596    2.1386 H       1  UNL1        0.0368
     10 C           2.1784    0.0172    1.2305 C.3     1  UNL1       -0.0427
     11 C           2.9097   -0.4622    2.4865 C.3     1  UNL1       -0.0381
     12 C           2.9575   -1.9934    2.4915 C.3     1  UNL1        0.0205
     13 N           1.5886   -2.5097    2.3562 N.3     1  UNL1       -0.1761
     14 S           0.9852   -3.5975    3.4493 S.O2    1  UNL1        0.0609
     15 O          -0.0594   -4.2957    2.7858 O.2     1  UNL1       -0.1528
     16 O           2.1076   -4.2471    4.0303 O.2     1  UNL1       -0.1528
     17 C           0.2231   -2.6714    4.7402 C.ar    1  UNL1        0.1055
     18 C           0.9634   -2.2800    5.8400 C.ar    1  UNL1       -0.0348
     19 C           0.3655   -1.5535    6.8527 C.ar    1  UNL1       -0.0483
     20 C          -0.9727   -1.2180    6.7653 C.ar    1  UNL1        0.0549
     21 C          -1.6247   -0.4264    7.8696 C.3     1  UNL1        0.4174
     22 F          -1.5050    0.9405    7.5967 F       1  UNL1       -0.1659
     23 F          -2.9786   -0.7688    7.9520 F       1  UNL1       -0.1659
     24 F          -0.9956   -0.7161    9.0851 F       1  UNL1       -0.1659
     25 C          -1.7127   -1.6083    5.6649 C.ar    1  UNL1       -0.0483
     26 C          -1.1138   -2.3315    4.6504 C.ar    1  UNL1       -0.0348
     27 C           0.7646   -2.0426    1.2329 C.3     1  UNL1        0.0284
     28 H           1.0039    1.9031    0.0027 H       1  UNL1        0.0284
     29 H          -0.5459    1.8868   -0.8726 H       1  UNL1        0.0284
     30 H          -0.5289    1.8773    0.9072 H       1  UNL1        0.0284
     31 H           2.6951   -0.3542    0.3454 H       1  UNL1        0.0271
     32 H           2.1646    1.1069    1.2120 H       1  UNL1        0.0271
     33 H           3.9253   -0.0665    2.4895 H       1  UNL1        0.0278
     34 H           2.3796   -0.1119    3.3721 H       1  UNL1        0.0278
     35 H           3.5641   -2.3428    1.6560 H       1  UNL1        0.0444
     36 H           3.3886   -2.3424    3.4298 H       1  UNL1        0.0444
     37 H           2.0089   -2.5421    5.9082 H       1  UNL1        0.0637
     38 H           0.9437   -1.2483    7.7122 H       1  UNL1        0.0624
     39 H          -2.7581   -1.3458    5.5965 H       1  UNL1        0.0624
     40 H          -1.6920   -2.6364    3.7906 H       1  UNL1        0.0637
     41 H          -0.2506   -2.4244    1.3409 H       1  UNL1        0.0449
     42 H           1.1921   -2.3958    0.2945 H       1  UNL1        0.0449
@<TRIPOS>UNITY_ATOM_ATTR
4 1
charge 1
@<TRIPOS>BOND
     1     1     2    1
     2     1    28    1
     3     1    29    1
     4     1    30    1
     5     2     3    1
     6     2     4    1
     7     2     8    1
     8     4     5    1
     9     4     6    1
    10     4     7    1
    11     8     9    1
    12     8    27    1
    13     8    10    1
    14    10    11    1
    15    10    31    1
    16    10    32    1
    17    11    12    1
    18    11    33    1
    19    11    34    1
    20    12    13    1
    21    12    35    1
    22    12    36    1
    23    14    13    1
    24    13    27    1
    25    14    15    2
    26    14    16    2
    27    14    17    1
    28    17    26   ar
    29    17    18   ar
    30    18    19   ar
    31    18    37    1
    32    19    20   ar
    33    19    38    1
    34    20    21    1
    35    20    25   ar
    36    21    22    1
    37    21    23    1
    38    21    24    1
    39    25    26   ar
    40    25    39    1
    41    26    40    1
    42    27    41    1
    43    27    42    1
