@<TRIPOS>MOLECULE
ZINC000012146325
 48 50 0 0 0
SMALL
GASTEIGER

@<TRIPOS>ATOM
      1 O           0.0021   -0.0041    0.0020 O.2     1  UNL1       -0.2737
      2 C          -0.0144    1.2086    0.0087 C.2     1  UNL1        0.2360
      3 N           1.1435    1.8983    0.0013 N.am    1  UNL1       -0.3109
      4 C           2.4220    1.1832   -0.0147 C.3     1  UNL1        0.0232
      5 C           2.7920    0.8322   -1.4572 C.3     1  UNL1       -0.0345
      6 C           4.1272    0.0853   -1.4740 C.3     1  UNL1       -0.0514
      7 C           5.2163    0.9741   -0.8699 C.3     1  UNL1       -0.0529
      8 C           4.8463    1.3250    0.5726 C.3     1  UNL1       -0.0514
      9 C           3.5111    2.0719    0.5893 C.3     1  UNL1       -0.0345
     10 C          -1.3296    1.9443    0.0189 C.3     1  UNL1        0.1262
     11 H          -1.4020    2.5869   -0.8586 H       1  UNL1        0.0620
     12 C          -1.4441    2.7723    1.2715 C.2     1  UNL1       -0.0593
     13 C          -2.4757    2.3880    1.9704 C.2     1  UNL1       -0.0703
     14 C          -3.1807    1.2547    1.2730 C.3     1  UNL1        0.0399
     15 N          -2.4409    0.9824    0.0279 N.3     1  UNL1       -0.1572
     16 S          -2.7886   -0.1652   -1.1142 S.O2    1  UNL1        0.0621
     17 O          -1.5719   -0.4324   -1.7979 O.2     1  UNL1       -0.1528
     18 O          -3.5467   -1.1704   -0.4552 O.2     1  UNL1       -0.1528
     19 C          -3.8674    0.5802   -2.2911 C.ar    1  UNL1        0.1055
     20 C          -5.2362    0.5240   -2.1068 C.ar    1  UNL1       -0.0348
     21 C          -6.0826    1.1088   -3.0301 C.ar    1  UNL1       -0.0483
     22 C          -5.5600    1.7502   -4.1376 C.ar    1  UNL1        0.0549
     23 C          -6.4827    2.3873   -5.1445 C.3     1  UNL1        0.4174
     24 F          -6.7245    3.7162   -4.7800 F       1  UNL1       -0.1659
     25 F          -5.8878    2.3517   -6.4102 F       1  UNL1       -0.1659
     26 F          -7.6925    1.6855   -5.1780 F       1  UNL1       -0.1659
     27 C          -4.1911    1.8075   -4.3213 C.ar    1  UNL1       -0.0483
     28 C          -3.3447    1.2260   -3.3959 C.ar    1  UNL1       -0.0348
     29 H           1.1304    2.8682    0.0067 H       1  UNL1        0.1490
     30 H           2.3338    0.2679    0.5707 H       1  UNL1        0.0498
     31 H           2.0161    0.1990   -1.8876 H       1  UNL1        0.0283
     32 H           2.8802    1.7474   -2.0426 H       1  UNL1        0.0283
     33 H           4.0389   -0.8299   -0.8886 H       1  UNL1        0.0266
     34 H           4.3908   -0.1647   -2.5017 H       1  UNL1        0.0266
     35 H           6.1675    0.4420   -0.8819 H       1  UNL1        0.0265
     36 H           5.3046    1.8893   -1.4554 H       1  UNL1        0.0265
     37 H           4.7581    0.4098    1.1580 H       1  UNL1        0.0266
     38 H           5.6223    1.9582    1.0029 H       1  UNL1        0.0266
     39 H           3.5994    2.9871    0.0039 H       1  UNL1        0.0283
     40 H           3.2476    2.3219    1.6170 H       1  UNL1        0.0283
     41 H          -0.7698    3.5683    1.5506 H       1  UNL1        0.0590
     42 H          -2.7804    2.8199    2.9122 H       1  UNL1        0.0583
     43 H          -3.1783    0.3691    1.9085 H       1  UNL1        0.0487
     44 H          -4.2052    1.5433    1.0383 H       1  UNL1        0.0487
     45 H          -5.6445    0.0230   -1.2415 H       1  UNL1        0.0637
     46 H          -7.1520    1.0644   -2.8864 H       1  UNL1        0.0624
     47 H          -3.7829    2.3089   -5.1863 H       1  UNL1        0.0624
     48 H          -2.2752    1.2708   -3.5394 H       1  UNL1        0.0637
@<TRIPOS>BOND
     1     1     2    2
     2     2     3   am
     3     2    10    1
     4     3     4    1
     5     3    29    1
     6     4     9    1
     7     4     5    1
     8     4    30    1
     9     5     6    1
    10     5    31    1
    11     5    32    1
    12     6     7    1
    13     6    33    1
    14     6    34    1
    15     7     8    1
    16     7    35    1
    17     7    36    1
    18     8     9    1
    19     8    37    1
    20     8    38    1
    21     9    39    1
    22     9    40    1
    23    10    11    1
    24    10    15    1
    25    10    12    1
    26    12    13    2
    27    12    41    1
    28    13    14    1
    29    13    42    1
    30    14    15    1
    31    14    43    1
    32    14    44    1
    33    16    15    1
    34    16    17    2
    35    16    18    2
    36    16    19    1
    37    19    28   ar
    38    19    20   ar
    39    20    21   ar
    40    20    45    1
    41    21    22   ar
    42    21    46    1
    43    22    23    1
    44    22    27   ar
    45    23    24    1
    46    23    25    1
    47    23    26    1
    48    27    28   ar
    49    27    47    1
    50    28    48    1
