@<TRIPOS>MOLECULE
ZINC000408610248
 59 61 0 0 0
SMALL
GASTEIGER

@<TRIPOS>ATOM
      1 C          -0.2809    0.6037    0.1870 C.3     1  UNL1       -0.0466
      2 C          -0.3716   -0.9028   -0.0641 C.3     1  UNL1        0.0206
      3 H          -1.4174   -1.1911   -0.1704 H       1  UNL1        0.0495
      4 C           0.2473   -1.6547    1.1160 C.3     1  UNL1       -0.0308
      5 C           0.0458   -3.1592    0.9243 C.3     1  UNL1       -0.0260
      6 C           0.6554   -3.8998    2.0866 C.ar    1  UNL1       -0.0473
      7 C           1.9778   -4.2991    2.0347 C.ar    1  UNL1       -0.0586
      8 C           2.5370   -4.9784    3.1008 C.ar    1  UNL1       -0.0615
      9 C           1.7740   -5.2580    4.2191 C.ar    1  UNL1       -0.0617
     10 C           0.4519   -4.8578    4.2714 C.ar    1  UNL1       -0.0615
     11 C          -0.1061   -4.1748    3.2070 C.ar    1  UNL1       -0.0586
     12 N           0.3545   -1.2378   -1.2916 N.am    1  UNL1       -0.3116
     13 C          -0.2585   -1.1324   -2.4872 C.2     1  UNL1        0.2290
     14 O          -1.4112   -0.7601   -2.5470 O.2     1  UNL1       -0.2743
     15 C           0.4885   -1.4770   -3.7499 C.3     1  UNL1        0.0971
     16 N          -0.3901   -1.2816   -4.9058 N.3     1  UNL1       -0.1634
     17 C          -0.5192    0.0461   -5.5115 C.3     1  UNL1        0.0488
     18 C           0.5842    0.2486   -6.5178 C.ar    1  UNL1        0.0035
     19 C           0.3385    0.0476   -7.8626 C.ar    1  UNL1       -0.0546
     20 C           1.3507    0.2333   -8.7861 C.ar    1  UNL1       -0.0613
     21 C           2.6093    0.6196   -8.3653 C.ar    1  UNL1       -0.0590
     22 C           2.8575    0.8208   -7.0206 C.ar    1  UNL1       -0.0261
     23 C           1.8431    0.6416   -6.0957 C.ar    1  UNL1        0.1278
     24 F           2.0845    0.8380   -4.7810 F       1  UNL1       -0.2052
     25 S          -1.2373   -2.5613   -5.5277 S.O2    1  UNL1        0.0616
     26 O          -1.4205   -2.2876   -6.9100 O.2     1  UNL1       -0.1528
     27 O          -0.6001   -3.7365   -5.0459 O.2     1  UNL1       -0.1528
     28 C          -2.8406   -2.5297   -4.7976 C.ar    1  UNL1        0.1056
     29 C          -3.0749   -3.2067   -3.6153 C.ar    1  UNL1       -0.0340
     30 C          -4.3323   -3.1822   -3.0421 C.ar    1  UNL1       -0.0415
     31 C          -5.3567   -2.4800   -3.6517 C.ar    1  UNL1        0.0411
     32 CL         -6.9361   -2.4483   -2.9321 Cl      1  UNL1       -0.0835
     33 C          -5.1216   -1.8026   -4.8350 C.ar    1  UNL1       -0.0415
     34 C          -3.8623   -1.8231   -5.4043 C.ar    1  UNL1       -0.0340
     35 H           0.7648    0.8921    0.2933 H       1  UNL1        0.0247
     36 H          -0.7219    1.1394   -0.6537 H       1  UNL1        0.0247
     37 H          -0.8212    0.8530    1.1003 H       1  UNL1        0.0247
     38 H           1.3136   -1.4347    1.1679 H       1  UNL1        0.0286
     39 H          -0.2344   -1.3385    2.0412 H       1  UNL1        0.0286
     40 H          -1.0205   -3.3792    0.8723 H       1  UNL1        0.0314
     41 H           0.5276   -3.4753   -0.0009 H       1  UNL1        0.0314
     42 H           2.5740   -4.0807    1.1610 H       1  UNL1        0.0620
     43 H           3.5700   -5.2911    3.0600 H       1  UNL1        0.0618
     44 H           2.2107   -5.7893    5.0518 H       1  UNL1        0.0618
     45 H          -0.1444   -5.0765    5.1449 H       1  UNL1        0.0618
     46 H          -1.1391   -3.8621    3.2478 H       1  UNL1        0.0620
     47 H           1.2764   -1.5356   -1.2438 H       1  UNL1        0.1490
     48 H           1.3613   -0.8309   -3.8436 H       1  UNL1        0.0539
     49 H           0.8096   -2.5179   -3.7095 H       1  UNL1        0.0539
     50 H          -1.4851    0.1255   -6.0105 H       1  UNL1        0.0494
     51 H          -0.4475    0.8081   -4.7354 H       1  UNL1        0.0494
     52 H          -0.6443   -0.2549   -8.1925 H       1  UNL1        0.0622
     53 H           1.1578    0.0759   -9.8371 H       1  UNL1        0.0618
     54 H           3.3993    0.7640   -9.0875 H       1  UNL1        0.0618
     55 H           3.8412    1.1220   -6.6919 H       1  UNL1        0.0646
     56 H          -2.2753   -3.7551   -3.1396 H       1  UNL1        0.0637
     57 H          -4.5153   -3.7115   -2.1186 H       1  UNL1        0.0633
     58 H          -5.9209   -1.2545   -5.3115 H       1  UNL1        0.0633
     59 H          -3.6786   -1.2941   -6.3277 H       1  UNL1        0.0637
@<TRIPOS>BOND
     1     1     2    1
     2     1    35    1
     3     1    36    1
     4     1    37    1
     5     2     3    1
     6     2     4    1
     7     2    12    1
     8     4     5    1
     9     4    38    1
    10     4    39    1
    11     5     6    1
    12     5    40    1
    13     5    41    1
    14     6    11   ar
    15     6     7   ar
    16     7     8   ar
    17     7    42    1
    18     8     9   ar
    19     8    43    1
    20     9    10   ar
    21     9    44    1
    22    10    11   ar
    23    10    45    1
    24    11    46    1
    25    12    13   am
    26    12    47    1
    27    13    14    2
    28    13    15    1
    29    15    16    1
    30    15    48    1
    31    15    49    1
    32    16    17    1
    33    25    16    1
    34    17    18    1
    35    17    50    1
    36    17    51    1
    37    18    23   ar
    38    18    19   ar
    39    19    20   ar
    40    19    52    1
    41    20    21   ar
    42    20    53    1
    43    21    22   ar
    44    21    54    1
    45    22    23   ar
    46    22    55    1
    47    23    24    1
    48    25    26    2
    49    25    27    2
    50    25    28    1
    51    28    34   ar
    52    28    29   ar
    53    29    30   ar
    54    29    56    1
    55    30    31   ar
    56    30    57    1
    57    31    32    1
    58    31    33   ar
    59    33    34   ar
    60    33    58    1
    61    34    59    1
