@<TRIPOS>MOLECULE
ZINC000000145697
 29 29 0 0 0
SMALL
GASTEIGER

@<TRIPOS>ATOM
      1 C          -0.0178    1.5019    0.0203 C.3     1  UNL1       -0.0436
      2 C           0.0023   -0.0049    0.0203 C.2     1  UNL1       -0.0708
      3 C           1.3174   -0.7409    0.0158 C.3     1  UNL1       -0.0436
      4 C          -1.1406   -0.6854    0.0243 C.2     1  UNL1       -0.0008
      5 C          -2.4239    0.0329    0.0287 C.2     1  UNL1        0.2410
      6 O          -2.4402    1.2490    0.0287 O.2     1  UNL1       -0.2705
      7 N          -3.5820   -0.6565    0.0327 N.am    1  UNL1       -0.2807
      8 C          -4.7994    0.0218    0.1536 C.ar    1  UNL1        0.0526
      9 C          -4.8444    1.2667    0.7665 C.ar    1  UNL1       -0.0274
     10 C          -6.0482    1.9343    0.8839 C.ar    1  UNL1        0.0566
     11 C          -6.0973    3.2857    1.5492 C.3     1  UNL1        0.4175
     12 F          -5.9038    4.2852    0.5896 F       1  UNL1       -0.1659
     13 F          -7.3442    3.4600    2.1592 F       1  UNL1       -0.1659
     14 F          -5.0896    3.3663    2.5163 F       1  UNL1       -0.1659
     15 C          -7.2077    1.3647    0.3916 C.ar    1  UNL1       -0.0486
     16 C          -7.1675    0.1245   -0.2193 C.ar    1  UNL1       -0.0411
     17 C          -5.9661   -0.5465   -0.3449 C.ar    1  UNL1        0.0622
     18 CL         -5.9159   -2.1029   -1.1122 Cl      1  UNL1       -0.0816
     19 H           1.0049    1.8790    0.0168 H       1  UNL1        0.0274
     20 H          -0.5395    1.8583   -0.8678 H       1  UNL1        0.0274
     21 H          -0.5334    1.8584    0.9121 H       1  UNL1        0.0274
     22 H           1.6380   -0.9183    1.0423 H       1  UNL1        0.0274
     23 H           1.1980   -1.6950   -0.4976 H       1  UNL1        0.0274
     24 H           2.0673   -0.1417   -0.5007 H       1  UNL1        0.0274
     25 H          -1.1262   -1.7653    0.0242 H       1  UNL1        0.0669
     26 H          -3.5713   -1.6231   -0.0482 H       1  UNL1        0.1552
     27 H          -3.9392    1.7126    1.1515 H       1  UNL1        0.0642
     28 H          -8.1472    1.8893    0.4845 H       1  UNL1        0.0623
     29 H          -8.0752   -0.3180   -0.6022 H       1  UNL1        0.0633
@<TRIPOS>BOND
     1     1     2    1
     2     1    19    1
     3     1    20    1
     4     1    21    1
     5     2     3    1
     6     2     4    2
     7     3    22    1
     8     3    23    1
     9     3    24    1
    10     4     5    1
    11     4    25    1
    12     5     6    2
    13     5     7   am
    14     7     8    1
    15     7    26    1
    16     8    17   ar
    17     8     9   ar
    18     9    10   ar
    19     9    27    1
    20    10    11    1
    21    10    15   ar
    22    11    12    1
    23    11    13    1
    24    11    14    1
    25    15    16   ar
    26    15    28    1
    27    16    17   ar
    28    16    29    1
    29    17    18    1
