@<TRIPOS>MOLECULE
ZINC000000464362
 39 40 0 0 0
SMALL
GASTEIGER

@<TRIPOS>ATOM
      1 C          -0.0187    1.5258    0.0104 C.3     1  UNL1       -0.0612
      2 C           0.0021   -0.0041    0.0020 C.3     1  UNL1       -0.0292
      3 H           0.5122   -0.3561   -0.8946 H       1  UNL1        0.0311
      4 C          -1.4334   -0.5345    0.0145 C.3     1  UNL1       -0.0454
      5 C          -1.4142   -2.0642   -0.0270 C.3     1  UNL1       -0.0292
      6 H          -2.4371   -2.4406   -0.0417 H       1  UNL1        0.0311
      7 C          -0.6799   -2.5317   -1.2853 C.3     1  UNL1       -0.0612
      8 C          -0.6916   -2.5957    1.2148 C.3     1  UNL1        0.0231
      9 N           0.6392   -1.9773    1.2884 N.3     1  UNL1       -0.1761
     10 S           1.9987   -2.9138    1.4182 S.O2    1  UNL1        0.0609
     11 O           2.9973   -2.0921    2.0072 O.2     1  UNL1       -0.1528
     12 O           1.5814   -4.1517    1.9775 O.2     1  UNL1       -0.1528
     13 C           2.5469   -3.2671   -0.2187 C.ar    1  UNL1        0.1060
     14 C           2.0795   -4.3889   -0.8770 C.ar    1  UNL1       -0.0353
     15 C           2.5096   -4.6662   -2.1613 C.ar    1  UNL1       -0.0594
     16 C           3.4067   -3.8212   -2.7872 C.ar    1  UNL1       -0.0500
     17 C           3.8735   -2.6986   -2.1291 C.ar    1  UNL1        0.0567
     18 C           4.8520   -1.7775   -2.8113 C.3     1  UNL1        0.4175
     19 F           5.1349   -2.2639   -4.0922 F       1  UNL1       -0.1659
     20 F           4.2961   -0.4976   -2.9107 F       1  UNL1       -0.1659
     21 F           6.0333   -1.7162   -2.0643 F       1  UNL1       -0.1659
     22 C           3.4402   -2.4191   -0.8467 C.ar    1  UNL1       -0.0237
     23 C           0.7415   -0.5122    1.2437 C.3     1  UNL1        0.0231
     24 H           1.0039    1.9031    0.0027 H       1  UNL1        0.0233
     25 H          -0.5459    1.8868   -0.8726 H       1  UNL1        0.0233
     26 H          -0.5289    1.8773    0.9072 H       1  UNL1        0.0233
     27 H          -1.9355   -0.2021    0.9231 H       1  UNL1        0.0271
     28 H          -1.9686   -0.1542   -0.8556 H       1  UNL1        0.0271
     29 H           0.3432   -2.1560   -1.2696 H       1  UNL1        0.0233
     30 H          -0.6665   -3.6212   -1.3144 H       1  UNL1        0.0233
     31 H          -1.1933   -2.1509   -2.1682 H       1  UNL1        0.0233
     32 H          -1.2630   -2.3406    2.1072 H       1  UNL1        0.0446
     33 H          -0.5879   -3.6783    1.1418 H       1  UNL1        0.0446
     34 H           1.3786   -5.0492   -0.3879 H       1  UNL1        0.0637
     35 H           2.1449   -5.5431   -2.6755 H       1  UNL1        0.0618
     36 H           3.7432   -4.0381   -3.7902 H       1  UNL1        0.0623
     37 H           3.8049   -1.5421   -0.3326 H       1  UNL1        0.0642
     38 H           1.7904   -0.2207    1.1903 H       1  UNL1        0.0446
     39 H           0.2870   -0.0867    2.1384 H       1  UNL1        0.0446
@<TRIPOS>BOND
     1     1     2    1
     2     1    24    1
     3     1    25    1
     4     1    26    1
     5     2     3    1
     6     2    23    1
     7     2     4    1
     8     4     5    1
     9     4    27    1
    10     4    28    1
    11     5     6    1
    12     5     7    1
    13     5     8    1
    14     7    29    1
    15     7    30    1
    16     7    31    1
    17     8     9    1
    18     8    32    1
    19     8    33    1
    20    10     9    1
    21     9    23    1
    22    10    11    2
    23    10    12    2
    24    10    13    1
    25    13    22   ar
    26    13    14   ar
    27    14    15   ar
    28    14    34    1
    29    15    16   ar
    30    15    35    1
    31    16    17   ar
    32    16    36    1
    33    17    18    1
    34    17    22   ar
    35    18    19    1
    36    18    20    1
    37    18    21    1
    38    22    37    1
    39    23    38    1
    40    23    39    1
