@<TRIPOS>MOLECULE
ZINC000008861775
 43 45 0 0 0
SMALL
GASTEIGER

@<TRIPOS>ATOM
      1 C           0.9627    1.7566   -0.3078 C.3     1  UNL1        0.0817
      2 O           1.0874    0.3139   -0.2005 O.3     1  UNL1       -0.4668
      3 C           0.4923   -0.4217   -1.1526 C.2     1  UNL1        0.3263
      4 O          -0.1127    0.1219   -2.0461 O.2     1  UNL1       -0.2490
      5 C           0.5789   -1.9255   -1.1072 C.3     1  UNL1        0.1328
      6 H           1.1659   -2.2350   -0.2425 H       1  UNL1        0.0599
      7 C          -0.8252   -2.5216   -1.0191 C.3     1  UNL1        0.0003
      8 C          -0.7961   -4.0035   -1.2860 C.ar    1  UNL1       -0.0408
      9 C          -1.8718   -4.7601   -0.8382 C.ar    1  UNL1       -0.0582
     10 C          -1.9125   -6.1213   -1.0584 C.ar    1  UNL1       -0.0615
     11 C          -0.8760   -6.7402   -1.7315 C.ar    1  UNL1       -0.0614
     12 C           0.1955   -5.9917   -2.1744 C.ar    1  UNL1       -0.0570
     13 C           0.2402   -4.6230   -1.9484 C.ar    1  UNL1       -0.0284
     14 C           1.4520   -3.8688   -2.4355 C.3     1  UNL1        0.0467
     15 N           1.2076   -2.4257   -2.3409 N.3     1  UNL1       -0.1581
     16 S           1.6195   -1.4000   -3.5740 S.O2    1  UNL1        0.0633
     17 O           1.9940   -0.1715   -2.9659 O.2     1  UNL1       -0.1528
     18 O           2.4779   -2.1337   -4.4365 O.2     1  UNL1       -0.1528
     19 C           0.1519   -1.0733   -4.4928 C.ar    1  UNL1        0.1243
     20 C          -0.3589    0.2097   -4.5459 C.ar    1  UNL1       -0.0223
     21 C          -1.5105    0.4662   -5.2668 C.ar    1  UNL1        0.0567
     22 C          -2.0671    1.8655   -5.3244 C.3     1  UNL1        0.4175
     23 F          -1.5129    2.5433   -6.4155 F       1  UNL1       -0.1659
     24 F          -3.4576    1.8087   -5.4680 F       1  UNL1       -0.1659
     25 F          -1.7476    2.5434   -4.1430 F       1  UNL1       -0.1659
     26 C          -2.1512   -0.5601   -5.9352 C.ar    1  UNL1       -0.0486
     27 C          -1.6411   -1.8439   -5.8828 C.ar    1  UNL1       -0.0410
     28 C          -0.4861   -2.1001   -5.1660 C.ar    1  UNL1        0.0673
     29 CL          0.1551   -3.7120   -5.0998 Cl      1  UNL1       -0.0815
     30 H           1.3978    2.0898   -1.2500 H       1  UNL1        0.0661
     31 H          -0.0910    2.0335   -0.2761 H       1  UNL1        0.0661
     32 H           1.4878    2.2294    0.5222 H       1  UNL1        0.0661
     33 H          -1.2277   -2.3449   -0.0217 H       1  UNL1        0.0334
     34 H          -1.4671   -2.0373   -1.7549 H       1  UNL1        0.0334
     35 H          -2.6832   -4.2783   -0.3128 H       1  UNL1        0.0620
     36 H          -2.7520   -6.7020   -0.7054 H       1  UNL1        0.0618
     37 H          -0.9043   -7.8050   -1.9097 H       1  UNL1        0.0618
     38 H           1.0053   -6.4747   -2.7010 H       1  UNL1        0.0621
     39 H           2.3133   -4.1306   -1.8210 H       1  UNL1        0.0493
     40 H           1.6527   -4.1360   -3.4730 H       1  UNL1        0.0493
     41 H           0.1412    1.0120   -4.0239 H       1  UNL1        0.0643
     42 H          -3.0507   -0.3591   -6.4981 H       1  UNL1        0.0623
     43 H          -2.1418   -2.6457   -6.4050 H       1  UNL1        0.0633
@<TRIPOS>BOND
     1     1     2    1
     2     1    30    1
     3     1    31    1
     4     1    32    1
     5     2     3    1
     6     3     4    2
     7     3     5    1
     8     5     6    1
     9     5    15    1
    10     5     7    1
    11     7     8    1
    12     7    33    1
    13     7    34    1
    14     8    13   ar
    15     8     9   ar
    16     9    10   ar
    17     9    35    1
    18    10    11   ar
    19    10    36    1
    20    11    12   ar
    21    11    37    1
    22    12    13   ar
    23    12    38    1
    24    13    14    1
    25    14    15    1
    26    14    39    1
    27    14    40    1
    28    16    15    1
    29    16    17    2
    30    16    18    2
    31    16    19    1
    32    19    28   ar
    33    19    20   ar
    34    20    21   ar
    35    20    41    1
    36    21    22    1
    37    21    26   ar
    38    22    23    1
    39    22    24    1
    40    22    25    1
    41    26    27   ar
    42    26    42    1
    43    27    28   ar
    44    27    43    1
    45    28    29    1
