@<TRIPOS>MOLECULE
ZINC000058441530
 47 49 0 0 0
SMALL
GASTEIGER

@<TRIPOS>ATOM
      1 O          -0.0135    1.0115   -0.8091 O.2     1  UNL1       -0.2738
      2 C           0.3578    1.7657    0.0651 C.2     1  UNL1        0.2345
      3 C           1.7999    2.1993    0.1238 C.3     1  UNL1        0.1080
      4 H           1.9522    2.8458    0.9881 H       1  UNL1        0.0576
      5 C           2.1599    2.9600   -1.1563 C.3     1  UNL1       -0.0272
      6 C           3.6574    3.2759   -1.1531 C.3     1  UNL1       -0.0499
      7 C           4.4558    1.9705   -1.1262 C.3     1  UNL1       -0.0385
      8 C           4.1218    1.1987    0.1543 C.3     1  UNL1        0.0213
      9 N           2.6656    1.0173    0.2343 N.3     1  UNL1       -0.1647
     10 S           2.0131   -0.4909    0.4388 S.O2    1  UNL1        0.0629
     11 O           1.0797   -0.6708   -0.6174 O.2     1  UNL1       -0.1528
     12 O           3.1037   -1.3718    0.6706 O.2     1  UNL1       -0.1528
     13 C           1.0760   -0.4559    1.9305 C.ar    1  UNL1        0.1242
     14 C          -0.2714   -0.7621    1.9075 C.ar    1  UNL1       -0.0223
     15 C          -1.0069   -0.7347    3.0780 C.ar    1  UNL1        0.0567
     16 C          -2.4762   -1.0687    3.0522 C.3     1  UNL1        0.4175
     17 F          -2.6540   -2.4163    3.3832 F       1  UNL1       -0.1659
     18 F          -3.1528   -0.2679    3.9786 F       1  UNL1       -0.1659
     19 F          -2.9859   -0.8320    1.7711 F       1  UNL1       -0.1659
     20 C          -0.3950   -0.4015    4.2717 C.ar    1  UNL1       -0.0486
     21 C           0.9527   -0.0950    4.2959 C.ar    1  UNL1       -0.0410
     22 C           1.6903   -0.1274    3.1261 C.ar    1  UNL1        0.0673
     23 CL          3.3828    0.2573    3.1557 Cl      1  UNL1       -0.0815
     24 N          -0.5204    2.2203    0.9809 N.am    1  UNL1       -0.3001
     25 C          -0.2323    3.2152    2.0242 C.3     1  UNL1        0.0148
     26 C          -1.5239    3.4025    2.8478 C.3     1  UNL1       -0.0357
     27 C          -2.3018    2.0874    2.5780 C.3     1  UNL1       -0.0357
     28 C          -1.9306    1.8069    1.0982 C.3     1  UNL1        0.0148
     29 H           1.9195    2.3459   -2.0242 H       1  UNL1        0.0286
     30 H           1.5921    3.8894   -1.1991 H       1  UNL1        0.0286
     31 H           3.9117    3.8386   -2.0513 H       1  UNL1        0.0266
     32 H           3.9015    3.8691   -0.2719 H       1  UNL1        0.0266
     33 H           4.1937    1.3658   -1.9943 H       1  UNL1        0.0278
     34 H           5.5221    2.1957   -1.1475 H       1  UNL1        0.0278
     35 H           4.6107    0.2248    0.1319 H       1  UNL1        0.0444
     36 H           4.4658    1.7628    1.0212 H       1  UNL1        0.0444
     37 H          -0.7500   -1.0225    0.9751 H       1  UNL1        0.0643
     38 H          -0.9700   -0.3802    5.1856 H       1  UNL1        0.0623
     39 H           1.4308    0.1653    5.2288 H       1  UNL1        0.0633
     40 H           0.5694    2.8549    2.6688 H       1  UNL1        0.0464
     41 H           0.0550    4.1612    1.5652 H       1  UNL1        0.0464
     42 H          -1.2937    3.5037    3.9084 H       1  UNL1        0.0281
     43 H          -2.0876    4.2642    2.4905 H       1  UNL1        0.0281
     44 H          -1.9534    1.2865    3.2303 H       1  UNL1        0.0281
     45 H          -3.3756    2.2391    2.6877 H       1  UNL1        0.0281
     46 H          -2.5606    2.3952    0.4310 H       1  UNL1        0.0464
     47 H          -2.0306    0.7444    0.8768 H       1  UNL1        0.0464
@<TRIPOS>BOND
     1     1     2    2
     2     2     3    1
     3     2    24   am
     4     3     4    1
     5     3     9    1
     6     3     5    1
     7     5     6    1
     8     5    29    1
     9     5    30    1
    10     6     7    1
    11     6    31    1
    12     6    32    1
    13     7     8    1
    14     7    33    1
    15     7    34    1
    16     8     9    1
    17     8    35    1
    18     8    36    1
    19    10     9    1
    20    10    11    2
    21    10    12    2
    22    10    13    1
    23    13    22   ar
    24    13    14   ar
    25    14    15   ar
    26    14    37    1
    27    15    16    1
    28    15    20   ar
    29    16    17    1
    30    16    18    1
    31    16    19    1
    32    20    21   ar
    33    20    38    1
    34    21    22   ar
    35    21    39    1
    36    22    23    1
    37    24    28    1
    38    24    25    1
    39    25    26    1
    40    25    40    1
    41    25    41    1
    42    26    27    1
    43    26    42    1
    44    26    43    1
    45    27    28    1
    46    27    44    1
    47    27    45    1
    48    28    46    1
    49    28    47    1
