@<TRIPOS>MOLECULE
ZINC000020781428
 38 39 0 0 0
SMALL
GASTEIGER

@<TRIPOS>ATOM
      1 C          -0.0225    1.8097    0.0120 C.3     1  UNL1        0.0707
      2 S           0.0021   -0.0041    0.0020 S.O2    1  UNL1        0.0290
      3 O           0.8448   -0.4970    1.0346 O.2     1  UNL1       -0.1583
      4 O          -1.3093   -0.5195   -0.1821 O.2     1  UNL1       -0.1583
      5 N           0.7961   -0.3989   -1.3965 N.3     1  UNL1       -0.1807
      6 C           0.0550   -0.5828   -2.6518 C.3     1  UNL1        0.0202
      7 C           0.4104   -1.9528   -3.2379 C.3     1  UNL1       -0.0379
      8 C           1.9299   -2.0624   -3.3834 C.3     1  UNL1       -0.0407
      9 C           2.5859   -1.9414   -2.0060 C.3     1  UNL1        0.0365
     10 H           2.2061   -2.7264   -1.3520 H       1  UNL1        0.0394
     11 C           4.0797   -2.0826   -2.1462 C.2     1  UNL1        0.1675
     12 O           4.7756   -1.0943   -2.2437 O.2     1  UNL1       -0.2917
     13 C           4.6940   -3.4198   -2.1648 C.ar    1  UNL1        0.0177
     14 C           3.8943   -4.5621   -2.0584 C.ar    1  UNL1       -0.0507
     15 C           4.4774   -5.8115   -2.0765 C.ar    1  UNL1       -0.0495
     16 C           5.8503   -5.9368   -2.1993 C.ar    1  UNL1        0.0548
     17 C           6.4793   -7.3061   -2.2183 C.3     1  UNL1        0.4174
     18 F           6.5532   -7.7671   -3.5371 F       1  UNL1       -0.1659
     19 F           7.7670   -7.2353   -1.6762 F       1  UNL1       -0.1659
     20 F           5.7015   -8.1871   -1.4592 F       1  UNL1       -0.1659
     21 C           6.6485   -4.8111   -2.3051 C.ar    1  UNL1       -0.0495
     22 C           6.0799   -3.5549   -2.2948 C.ar    1  UNL1       -0.0507
     23 C           2.2558   -0.5658   -1.4070 C.3     1  UNL1        0.0300
     24 H           1.0001    2.1870    0.0043 H       1  UNL1        0.0479
     25 H          -0.5497    2.1708   -0.8711 H       1  UNL1        0.0479
     26 H          -0.5327    2.1613    0.9088 H       1  UNL1        0.0479
     27 H          -1.0159   -0.5367   -2.4539 H       1  UNL1        0.0444
     28 H           0.3323    0.1998   -3.3579 H       1  UNL1        0.0444
     29 H           0.0511   -2.7377   -2.5723 H       1  UNL1        0.0278
     30 H          -0.0576   -2.0624   -4.2163 H       1  UNL1        0.0278
     31 H           2.1840   -3.0268   -3.8232 H       1  UNL1        0.0273
     32 H           2.2915   -1.2623   -4.0293 H       1  UNL1        0.0273
     33 H           2.8229   -4.4660   -1.9618 H       1  UNL1        0.0625
     34 H           3.8612   -6.6947   -1.9945 H       1  UNL1        0.0623
     35 H           7.7190   -4.9169   -2.4005 H       1  UNL1        0.0623
     36 H           6.7041   -2.6774   -2.3774 H       1  UNL1        0.0625
     37 H           2.7140    0.2160   -2.0128 H       1  UNL1        0.0451
     38 H           2.6361   -0.5106   -0.3870 H       1  UNL1        0.0451
@<TRIPOS>BOND
     1     1     2    1
     2     1    24    1
     3     1    25    1
     4     1    26    1
     5     2     3    2
     6     2     4    2
     7     2     5    1
     8     5    23    1
     9     5     6    1
    10     6     7    1
    11     6    27    1
    12     6    28    1
    13     7     8    1
    14     7    29    1
    15     7    30    1
    16     8     9    1
    17     8    31    1
    18     8    32    1
    19     9    10    1
    20     9    11    1
    21     9    23    1
    22    11    12    2
    23    11    13    1
    24    13    22   ar
    25    13    14   ar
    26    14    15   ar
    27    14    33    1
    28    15    16   ar
    29    15    34    1
    30    16    17    1
    31    16    21   ar
    32    17    18    1
    33    17    19    1
    34    17    20    1
    35    21    22   ar
    36    21    35    1
    37    22    36    1
    38    23    37    1
    39    23    38    1
