@<TRIPOS>MOLECULE
ZINC000085423434
 45 46 0 0 0
SMALL
GASTEIGER

@<TRIPOS>ATOM
      1 C           0.5389    0.7182    0.5933 C.3     1  UNL1       -0.0306
      2 C           0.4135   -0.8016    0.4688 C.3     1  UNL1        0.0897
      3 O          -0.9904   -1.1691    0.4216 O.3     1  UNL1       -0.4647
      4 C          -1.2747   -2.4764    0.3122 C.2     1  UNL1        0.3103
      5 O          -0.3802   -3.2867    0.2577 O.2     1  UNL1       -0.2505
      6 C          -2.7097   -2.9334    0.2574 C.3     1  UNL1        0.0589
      7 C          -3.4004   -2.3008   -0.9529 C.3     1  UNL1       -0.0256
      8 C          -4.8677   -2.7399   -0.9858 C.3     1  UNL1        0.0213
      9 N          -4.9226   -4.2079   -0.9587 N.3     1  UNL1       -0.1765
     10 S          -5.7658   -5.0422   -2.1143 S.O2    1  UNL1        0.0614
     11 O          -5.9745   -6.3480   -1.5943 O.2     1  UNL1       -0.1528
     12 O          -6.8264   -4.1922   -2.5291 O.2     1  UNL1       -0.1528
     13 C          -4.7013   -5.2251   -3.5064 C.ar    1  UNL1        0.1176
     14 C          -3.3498   -4.9642   -3.3819 C.ar    1  UNL1       -0.0232
     15 C          -2.5145   -5.1077   -4.4742 C.ar    1  UNL1        0.0567
     16 C          -1.0409   -4.8228   -4.3385 C.3     1  UNL1        0.4175
     17 F          -0.3716   -5.9940   -3.9679 F       1  UNL1       -0.1659
     18 F          -0.5396   -4.3665   -5.5623 F       1  UNL1       -0.1659
     19 F          -0.8436   -3.8432   -3.3594 F       1  UNL1       -0.1659
     20 C          -3.0309   -5.5130   -5.6905 C.ar    1  UNL1       -0.0495
     21 C          -4.3828   -5.7745   -5.8150 C.ar    1  UNL1       -0.0477
     22 C          -5.2171   -5.6351   -4.7219 C.ar    1  UNL1        0.0811
     23 C          -6.6907   -5.9201   -4.8575 C.3     1  UNL1        0.4192
     24 F          -6.9508   -6.4344   -6.1323 F       1  UNL1       -0.1658
     25 F          -7.0759   -6.8544   -3.8902 F       1  UNL1       -0.1658
     26 F          -7.4133   -4.7360   -4.6761 F       1  UNL1       -0.1658
     27 C          -4.2148   -4.9217    0.1129 C.3     1  UNL1        0.0213
     28 C          -2.7549   -4.4581    0.1334 C.3     1  UNL1       -0.0256
     29 H           1.5928    0.9941    0.6288 H       1  UNL1        0.0262
     30 H           0.0676    1.1934   -0.2670 H       1  UNL1        0.0262
     31 H           0.0456    1.0498    1.5070 H       1  UNL1        0.0262
     32 H           0.9068   -1.1332   -0.4449 H       1  UNL1        0.0694
     33 H           0.8848   -1.2768    1.3291 H       1  UNL1        0.0694
     34 H          -3.2232   -2.6278    1.1691 H       1  UNL1        0.0414
     35 H          -3.3474   -1.2148   -0.8756 H       1  UNL1        0.0286
     36 H          -2.9029   -2.6257   -1.8667 H       1  UNL1        0.0286
     37 H          -5.3888   -2.3387   -0.1165 H       1  UNL1        0.0444
     38 H          -5.3384   -2.3734   -1.8980 H       1  UNL1        0.0444
     39 H          -2.9462   -4.6478   -2.4314 H       1  UNL1        0.0643
     40 H          -2.3784   -5.6251   -6.5438 H       1  UNL1        0.0623
     41 H          -4.7863   -6.0908   -6.7655 H       1  UNL1        0.0624
     42 H          -4.6827   -4.6984    1.0717 H       1  UNL1        0.0444
     43 H          -4.2548   -5.9948   -0.0744 H       1  UNL1        0.0444
     44 H          -2.2634   -4.7627   -0.7906 H       1  UNL1        0.0286
     45 H          -2.2424   -4.9076    0.9839 H       1  UNL1        0.0286
@<TRIPOS>BOND
     1     1     2    1
     2     1    29    1
     3     1    30    1
     4     1    31    1
     5     2     3    1
     6     2    32    1
     7     2    33    1
     8     3     4    1
     9     4     5    2
    10     4     6    1
    11     6    28    1
    12     6     7    1
    13     6    34    1
    14     7     8    1
    15     7    35    1
    16     7    36    1
    17     8     9    1
    18     8    37    1
    19     8    38    1
    20    10     9    1
    21     9    27    1
    22    10    11    2
    23    10    12    2
    24    10    13    1
    25    13    22   ar
    26    13    14   ar
    27    14    15   ar
    28    14    39    1
    29    15    16    1
    30    15    20   ar
    31    16    17    1
    32    16    18    1
    33    16    19    1
    34    20    21   ar
    35    20    40    1
    36    21    22   ar
    37    21    41    1
    38    22    23    1
    39    23    24    1
    40    23    25    1
    41    23    26    1
    42    27    28    1
    43    27    42    1
    44    27    43    1
    45    28    44    1
    46    28    45    1
