@<TRIPOS>MOLECULE
ZINC000032909194
 44 46 0 0 0
SMALL
GASTEIGER

@<TRIPOS>ATOM
      1 C           3.9246   -9.6722    2.6274 C.3     1  UNL1       -0.0334
      2 C           3.8572   -8.3063    1.9943 C.ar    1  UNL1       -0.0114
      3 C           4.8468   -7.7237    1.3156 C.ar    1  UNL1       -0.0499
      4 C           4.5536   -6.4635    0.8236 C.ar    1  UNL1       -0.0278
      5 C           3.3260   -6.0227    1.1028 C.ar    1  UNL1        0.1429
      6 S           2.6703   -4.4632    0.6103 S.O2    1  UNL1        0.0678
      7 O           1.5496   -4.2164    1.4483 O.2     1  UNL1       -0.1523
      8 O           3.7761   -3.5765    0.5102 O.2     1  UNL1       -0.1523
      9 N           2.0756   -4.6441   -0.9246 N.3     1  UNL1       -0.1642
     10 C           0.7343   -5.1474   -1.2726 C.3     1  UNL1        0.0214
     11 C           0.4420   -4.5598   -2.6758 C.3     1  UNL1       -0.0366
     12 C           1.8423   -4.6288   -3.3403 C.3     1  UNL1       -0.0260
     13 C           2.7954   -4.3234   -2.1658 C.3     1  UNL1        0.1081
     14 H           3.6881   -4.9443   -2.2417 H       1  UNL1        0.0576
     15 C           3.1814   -2.8668   -2.1844 C.2     1  UNL1        0.2361
     16 O           2.6032   -2.0770   -1.4682 O.2     1  UNL1       -0.2737
     17 N           4.1692   -2.4417   -2.9969 N.am    1  UNL1       -0.2842
     18 C           4.4691   -1.0775   -3.0791 C.ar    1  UNL1        0.0335
     19 C           5.7748   -0.6648   -3.3101 C.ar    1  UNL1       -0.0399
     20 C           6.0676    0.6826   -3.3907 C.ar    1  UNL1       -0.0484
     21 C           5.0622    1.6202   -3.2412 C.ar    1  UNL1        0.0549
     22 C           5.3853    3.0895   -3.3293 C.3     1  UNL1        0.4174
     23 F           5.2646    3.5148   -4.6566 F       1  UNL1       -0.1659
     24 F           4.4964    3.8114   -2.5256 F       1  UNL1       -0.1659
     25 F           6.6949    3.3063   -2.8874 F       1  UNL1       -0.1659
     26 C           3.7610    1.2125   -3.0116 C.ar    1  UNL1       -0.0484
     27 C           3.4607   -0.1335   -2.9356 C.ar    1  UNL1       -0.0399
     28 S           2.4592   -7.2397    2.0308 S.2     1  UNL1       -0.0738
     29 H           2.9737   -9.8958    3.1111 H       1  UNL1        0.0283
     30 H           4.1261  -10.4191    1.8595 H       1  UNL1        0.0283
     31 H           4.7227   -9.6897    3.3696 H       1  UNL1        0.0283
     32 H           5.8043   -8.1991    1.1619 H       1  UNL1        0.0626
     33 H           5.2651   -5.8811    0.2570 H       1  UNL1        0.0643
     34 H           0.7359   -6.2368   -1.3104 H       1  UNL1        0.0444
     35 H          -0.0026   -4.7931   -0.5519 H       1  UNL1        0.0444
     36 H          -0.2773   -5.1759   -3.2153 H       1  UNL1        0.0279
     37 H           0.0944   -3.5292   -2.6031 H       1  UNL1        0.0279
     38 H           2.0288   -5.6238   -3.7444 H       1  UNL1        0.0286
     39 H           1.9377   -3.8714   -4.1184 H       1  UNL1        0.0286
     40 H           4.6722   -3.0816   -3.5246 H       1  UNL1        0.1549
     41 H           6.5605   -1.3966   -3.4262 H       1  UNL1        0.0636
     42 H           7.0828    1.0042   -3.5703 H       1  UNL1        0.0624
     43 H           2.9781    1.9472   -2.8953 H       1  UNL1        0.0624
     44 H           2.4443   -0.4513   -2.7562 H       1  UNL1        0.0636
@<TRIPOS>BOND
     1     1     2    1
     2     1    29    1
     3     1    30    1
     4     1    31    1
     5     2    28   ar
     6     2     3   ar
     7     3     4   ar
     8     3    32    1
     9     4     5   ar
    10     4    33    1
    11     5     6    1
    12     5    28   ar
    13     6     7    2
    14     6     8    2
    15     6     9    1
    16     9    13    1
    17     9    10    1
    18    10    11    1
    19    10    34    1
    20    10    35    1
    21    11    12    1
    22    11    36    1
    23    11    37    1
    24    12    13    1
    25    12    38    1
    26    12    39    1
    27    13    14    1
    28    13    15    1
    29    15    16    2
    30    15    17   am
    31    17    18    1
    32    17    40    1
    33    18    27   ar
    34    18    19   ar
    35    19    20   ar
    36    19    41    1
    37    20    21   ar
    38    20    42    1
    39    21    22    1
    40    21    26   ar
    41    22    23    1
    42    22    24    1
    43    22    25    1
    44    26    27   ar
    45    26    43    1
    46    27    44    1
