@<TRIPOS>MOLECULE
ZINC000016651886
 48 49 0 0 0
SMALL
GASTEIGER

@<TRIPOS>ATOM
      1 C          -0.0184    1.5028    0.0103 C.3     1  UNL1       -0.0362
      2 C           0.0021   -0.0041    0.0020 C.ar    1  UNL1       -0.0069
      3 C           0.0057   -0.6887   -1.1976 C.ar    1  UNL1       -0.0290
      4 C           0.0240   -2.0714   -1.2059 C.ar    1  UNL1        0.1059
      5 S           0.0286   -2.9418   -2.7379 S.O2    1  UNL1        0.0604
      6 O          -0.4976   -4.2337   -2.4670 O.2     1  UNL1       -0.1529
      7 O          -0.5319   -2.0607   -3.7016 O.2     1  UNL1       -0.1529
      8 N           1.6115   -3.1630   -3.1712 N.3     1  UNL1       -0.1827
      9 C           2.3291   -4.3639   -2.7362 C.3     1  UNL1        0.0086
     10 C           2.2943   -2.1579   -3.9896 C.3     1  UNL1        0.0086
     11 C           0.0391   -2.7720   -0.0142 C.ar    1  UNL1       -0.0319
     12 C           0.0359   -2.0918    1.1885 C.ar    1  UNL1       -0.0178
     13 C           0.0230   -0.7048    1.1994 C.ar    1  UNL1        0.1242
     14 O           0.0199   -0.0335    2.3810 O.3     1  UNL1       -0.4825
     15 C           0.0305   -0.8200    3.5741 C.3     1  UNL1        0.1652
     16 C           0.0252    0.0897    4.7755 C.2     1  UNL1        0.2507
     17 O           0.0135    1.2931    4.6250 O.2     1  UNL1       -0.2721
     18 N           0.0334   -0.4340    6.0173 N.am    1  UNL1       -0.3100
     19 C           0.0283    0.4503    7.1853 C.3     1  UNL1        0.0380
     20 C           0.0397   -0.3918    8.4627 C.3     1  UNL1        0.0742
     21 H           0.9249   -1.0273    8.4883 H       1  UNL1        0.0611
     22 C          -0.0008    0.5247    9.7114 C.3     1  UNL1       -0.0231
     23 C          -0.6196   -0.4366   10.7626 C.3     1  UNL1       -0.0271
     24 C          -1.5883   -1.2795    9.9057 C.3     1  UNL1        0.0482
     25 O          -1.1508   -1.1917    8.5431 O.3     1  UNL1       -0.3750
     26 H           1.0042    1.8801    0.0026 H       1  UNL1        0.0279
     27 H          -0.5455    1.8639   -0.8728 H       1  UNL1        0.0279
     28 H          -0.5286    1.8543    0.9071 H       1  UNL1        0.0279
     29 H          -0.0060   -0.1437   -2.1299 H       1  UNL1        0.0641
     30 H           2.2055   -5.1506   -3.4804 H       1  UNL1        0.0408
     31 H           3.3885   -4.1333   -2.6237 H       1  UNL1        0.0408
     32 H           1.9272   -4.7012   -1.7808 H       1  UNL1        0.0408
     33 H           2.7652   -1.4197   -3.3404 H       1  UNL1        0.0408
     34 H           3.0557   -2.6429   -4.6005 H       1  UNL1        0.0408
     35 H           1.5700   -1.6632   -4.6367 H       1  UNL1        0.0408
     36 H           0.0529   -3.8519   -0.0233 H       1  UNL1        0.0638
     37 H           0.0473   -2.6396    2.1192 H       1  UNL1        0.0655
     38 H          -0.8535   -1.4573    3.5970 H       1  UNL1        0.0795
     39 H           0.9263   -1.4406    3.5922 H       1  UNL1        0.0795
     40 H           0.0428   -1.3965    6.1378 H       1  UNL1        0.1489
     41 H           0.9123    1.0876    7.1624 H       1  UNL1        0.0487
     42 H          -0.8676    1.0709    7.1672 H       1  UNL1        0.0487
     43 H           1.0025    0.8339   10.0044 H       1  UNL1        0.0291
     44 H          -0.6431    1.3892    9.5435 H       1  UNL1        0.0291
     45 H           0.1484   -1.0660   11.2123 H       1  UNL1        0.0288
     46 H          -1.1619    0.1209   11.5263 H       1  UNL1        0.0288
     47 H          -1.5640   -2.3186   10.2341 H       1  UNL1        0.0560
     48 H          -2.6006   -0.8854    9.9962 H       1  UNL1        0.0560
@<TRIPOS>BOND
     1     1     2    1
     2     1    26    1
     3     1    27    1
     4     1    28    1
     5     2    13   ar
     6     2     3   ar
     7     3     4   ar
     8     3    29    1
     9     4     5    1
    10     4    11   ar
    11     5     6    2
    12     5     7    2
    13     5     8    1
    14     8     9    1
    15     8    10    1
    16     9    30    1
    17     9    31    1
    18     9    32    1
    19    10    33    1
    20    10    34    1
    21    10    35    1
    22    11    12   ar
    23    11    36    1
    24    12    13   ar
    25    12    37    1
    26    13    14    1
    27    14    15    1
    28    15    16    1
    29    15    38    1
    30    15    39    1
    31    16    17    2
    32    16    18   am
    33    18    19    1
    34    18    40    1
    35    19    20    1
    36    19    41    1
    37    19    42    1
    38    20    21    1
    39    20    25    1
    40    20    22    1
    41    22    23    1
    42    22    43    1
    43    22    44    1
    44    23    24    1
    45    23    45    1
    46    23    46    1
    47    24    25    1
    48    24    47    1
    49    24    48    1
