@<TRIPOS>MOLECULE
ZINC000155263958
 49 51 0 0 0
SMALL
GASTEIGER

@<TRIPOS>ATOM
      1 O           0.0021   -0.0041    0.0020 O.2     1  UNL1       -0.1409
      2 S          -0.0172    1.4168    0.0098 S.O2    1  UNL1        0.1001
      3 O           1.1617    2.2101    0.0028 O.2     1  UNL1       -0.1409
      4 N          -0.9002    1.8797   -1.3124 N.3     1  UNL1       -0.1565
      5 C          -1.9187    1.0611   -1.9949 C.3     1  UNL1        0.0482
      6 C          -1.9815    1.6264   -3.4358 C.3     1  UNL1        0.0714
      7 H          -1.1733    1.2263   -4.0480 H       1  UNL1        0.0607
      8 O          -3.2522    1.3633   -4.0344 O.3     1  UNL1       -0.3904
      9 C          -1.7885    3.1451   -3.1833 C.3     1  UNL1       -0.0042
     10 C          -0.8028    3.1776   -1.9962 C.3     1  UNL1        0.0602
     11 H           0.2136    3.3229   -2.3621 H       1  UNL1        0.0530
     12 C          -1.1724    4.2939   -1.0536 C.ar    1  UNL1       -0.0285
     13 C          -2.2153    4.1284   -0.1615 C.ar    1  UNL1       -0.0565
     14 C          -2.5543    5.1523    0.7031 C.ar    1  UNL1       -0.0498
     15 C          -1.8502    6.3416    0.6758 C.ar    1  UNL1        0.0548
     16 C          -2.2202    7.4581    1.6180 C.3     1  UNL1        0.4174
     17 F          -1.4932    7.3259    2.8060 F       1  UNL1       -0.1659
     18 F          -1.9217    8.6886    1.0230 F       1  UNL1       -0.1659
     19 F          -3.5891    7.3962    1.8997 F       1  UNL1       -0.1659
     20 C          -0.8065    6.5066   -0.2154 C.ar    1  UNL1       -0.0498
     21 C          -0.4650    5.4813   -1.0773 C.ar    1  UNL1       -0.0565
     22 N          -0.8748    1.8654    1.3536 N.3     1  UNL1       -0.1664
     23 C          -0.6492    3.1794    1.9129 C.3     1  UNL1        0.0215
     24 C           0.4959    3.1116    2.9533 C.3     1  UNL1       -0.0385
     25 C           0.0469    2.4036    4.1619 C.3     1  UNL1       -0.0518
     26 C          -0.3390    0.9459    3.9295 C.3     1  UNL1       -0.0518
     27 C          -1.7740    0.8758    3.4686 C.3     1  UNL1       -0.0385
     28 C          -1.8422    0.9096    1.9273 C.3     1  UNL1        0.0215
     29 H          -1.6156    0.0142   -2.0110 H       1  UNL1        0.0470
     30 H          -2.8851    1.1696   -1.5024 H       1  UNL1        0.0470
     31 H          -3.4583    0.4227   -4.1223 H       1  UNL1        0.2098
     32 H          -1.3571    3.6298   -4.0591 H       1  UNL1        0.0309
     33 H          -2.7335    3.6134   -2.9082 H       1  UNL1        0.0309
     34 H          -2.7654    3.1992   -0.1401 H       1  UNL1        0.0621
     35 H          -3.3696    5.0233    1.3996 H       1  UNL1        0.0623
     36 H          -0.2562    7.4357   -0.2365 H       1  UNL1        0.0623
     37 H           0.3505    5.6102   -1.7736 H       1  UNL1        0.0621
     38 H          -0.3752    3.8709    1.1161 H       1  UNL1        0.0444
     39 H          -1.5605    3.5285    2.3985 H       1  UNL1        0.0444
     40 H           1.3457    2.5835    2.5206 H       1  UNL1        0.0278
     41 H           0.8012    4.1233    3.2203 H       1  UNL1        0.0278
     42 H           0.8484    2.4360    4.8999 H       1  UNL1        0.0266
     43 H          -0.8163    2.9292    4.5703 H       1  UNL1        0.0266
     44 H           0.3094    0.5153    3.1665 H       1  UNL1        0.0266
     45 H          -0.2278    0.3877    4.8590 H       1  UNL1        0.0266
     46 H          -2.2250   -0.0483    3.8302 H       1  UNL1        0.0278
     47 H          -2.3248    1.7260    3.8708 H       1  UNL1        0.0278
     48 H          -2.8503    1.1918    1.6237 H       1  UNL1        0.0444
     49 H          -1.6239   -0.0862    1.5414 H       1  UNL1        0.0444
@<TRIPOS>BOND
     1     1     2    2
     2     2     3    2
     3     2     4    1
     4     2    22    1
     5     4    10    1
     6     4     5    1
     7     5     6    1
     8     5    29    1
     9     5    30    1
    10     6     7    1
    11     6     8    1
    12     6     9    1
    13     8    31    1
    14     9    10    1
    15     9    32    1
    16     9    33    1
    17    10    11    1
    18    10    12    1
    19    12    21   ar
    20    12    13   ar
    21    13    14   ar
    22    13    34    1
    23    14    15   ar
    24    14    35    1
    25    15    16    1
    26    15    20   ar
    27    16    17    1
    28    16    18    1
    29    16    19    1
    30    20    21   ar
    31    20    36    1
    32    21    37    1
    33    22    28    1
    34    22    23    1
    35    23    24    1
    36    23    38    1
    37    23    39    1
    38    24    25    1
    39    24    40    1
    40    24    41    1
    41    25    26    1
    42    25    42    1
    43    25    43    1
    44    26    27    1
    45    26    44    1
    46    26    45    1
    47    27    28    1
    48    27    46    1
    49    27    47    1
    50    28    48    1
    51    28    49    1
