@<TRIPOS>MOLECULE
ZINC000408621690
 56 57 0 0 0
SMALL
GASTEIGER

@<TRIPOS>ATOM
      1 C          -3.7220  -12.3622   -5.0470 C.3     1  UNL1       -0.0307
      2 C          -3.8018  -11.1462   -4.1219 C.3     1  UNL1        0.0868
      3 O          -2.4982  -10.8413   -3.6223 O.3     1  UNL1       -0.4922
      4 C          -2.3930   -9.7803   -2.7797 C.ar    1  UNL1        0.1206
      5 C          -3.5221   -9.0511   -2.4362 C.ar    1  UNL1       -0.0181
      6 C          -3.4126   -7.9733   -1.5791 C.ar    1  UNL1       -0.0319
      7 C          -2.1788   -7.6207   -1.0641 C.ar    1  UNL1        0.1057
      8 S          -2.0424   -6.2450    0.0284 S.O2    1  UNL1        0.0616
      9 O          -0.7022   -5.7835   -0.0730 O.2     1  UNL1       -0.1528
     10 O          -3.1703   -5.4184   -0.2244 O.2     1  UNL1       -0.1528
     11 N          -2.2225   -6.8233    1.5697 N.3     1  UNL1       -0.1635
     12 C          -3.5633   -7.0221    2.1254 C.3     1  UNL1        0.0971
     13 C          -3.9832   -8.4553    1.9237 C.2     1  UNL1        0.2290
     14 O          -3.2360   -9.2340    1.3702 O.2     1  UNL1       -0.2743
     15 N          -5.1890   -8.8718    2.3583 N.am    1  UNL1       -0.3116
     16 C          -5.5972  -10.2651    2.1622 C.3     1  UNL1        0.0201
     17 H          -5.2011  -10.6298    1.2145 H       1  UNL1        0.0495
     18 C          -5.0521  -11.1221    3.3065 C.3     1  UNL1       -0.0466
     19 C          -7.1247  -10.3512    2.1435 C.3     1  UNL1       -0.0376
     20 C          -7.6631   -9.5966    0.9263 C.3     1  UNL1       -0.0636
     21 C          -1.0410   -7.1360    2.3774 C.3     1  UNL1        0.0460
     22 C          -0.7100   -5.9599    3.2597 C.ar    1  UNL1       -0.0317
     23 C           0.2267   -5.0299    2.8491 C.ar    1  UNL1       -0.0573
     24 C           0.5303   -3.9510    3.6583 C.ar    1  UNL1       -0.0615
     25 C          -0.1031   -3.8020    4.8779 C.ar    1  UNL1       -0.0617
     26 C          -1.0405   -4.7315    5.2881 C.ar    1  UNL1       -0.0615
     27 C          -1.3472   -5.8080    4.4769 C.ar    1  UNL1       -0.0573
     28 C          -1.0520   -8.3460   -1.4046 C.ar    1  UNL1       -0.0319
     29 C          -1.1571   -9.4279   -2.2571 C.ar    1  UNL1       -0.0181
     30 H          -4.7163  -12.5948   -5.4281 H       1  UNL1        0.0262
     31 H          -3.0558  -12.1412   -5.8810 H       1  UNL1        0.0262
     32 H          -3.3368  -13.2170   -4.4911 H       1  UNL1        0.0262
     33 H          -4.1870  -10.2914   -4.6778 H       1  UNL1        0.0694
     34 H          -4.4680  -11.3673   -3.2879 H       1  UNL1        0.0694
     35 H          -4.4859   -9.3258   -2.8388 H       1  UNL1        0.0655
     36 H          -4.2913   -7.4054   -1.3114 H       1  UNL1        0.0638
     37 H          -3.5526   -6.7932    3.1910 H       1  UNL1        0.0539
     38 H          -4.2680   -6.3624    1.6191 H       1  UNL1        0.0539
     39 H          -5.7867   -8.2491    2.8010 H       1  UNL1        0.1490
     40 H          -5.4482  -10.7574    4.2542 H       1  UNL1        0.0247
     41 H          -5.3558  -12.1587    3.1606 H       1  UNL1        0.0247
     42 H          -3.9639  -11.0607    3.3199 H       1  UNL1        0.0247
     43 H          -7.4290  -11.3964    2.0868 H       1  UNL1        0.0280
     44 H          -7.5249   -9.9051    3.0539 H       1  UNL1        0.0280
     45 H          -8.7513   -9.6580    0.9130 H       1  UNL1        0.0230
     46 H          -7.3588   -8.5515    0.9830 H       1  UNL1        0.0230
     47 H          -7.2628  -10.0427    0.0159 H       1  UNL1        0.0230
     48 H          -1.2453   -8.0090    2.9973 H       1  UNL1        0.0493
     49 H          -0.1970   -7.3463    1.7205 H       1  UNL1        0.0493
     50 H           0.7216   -5.1463    1.8962 H       1  UNL1        0.0621
     51 H           1.2627   -3.2248    3.3378 H       1  UNL1        0.0618
     52 H           0.1346   -2.9595    5.5105 H       1  UNL1        0.0618
     53 H          -1.5351   -4.6152    6.2411 H       1  UNL1        0.0618
     54 H          -2.0796   -6.5342    4.7974 H       1  UNL1        0.0621
     55 H          -0.0895   -8.0688   -1.0007 H       1  UNL1        0.0638
     56 H          -0.2766   -9.9942   -2.5227 H       1  UNL1        0.0655
@<TRIPOS>BOND
     1     1     2    1
     2     1    30    1
     3     1    31    1
     4     1    32    1
     5     2     3    1
     6     2    33    1
     7     2    34    1
     8     3     4    1
     9     4    29   ar
    10     4     5   ar
    11     5     6   ar
    12     5    35    1
    13     6     7   ar
    14     6    36    1
    15     7     8    1
    16     7    28   ar
    17     8     9    2
    18     8    10    2
    19     8    11    1
    20    11    12    1
    21    11    21    1
    22    12    13    1
    23    12    37    1
    24    12    38    1
    25    13    14    2
    26    13    15   am
    27    15    16    1
    28    15    39    1
    29    16    17    1
    30    16    18    1
    31    16    19    1
    32    18    40    1
    33    18    41    1
    34    18    42    1
    35    19    20    1
    36    19    43    1
    37    19    44    1
    38    20    45    1
    39    20    46    1
    40    20    47    1
    41    21    22    1
    42    21    48    1
    43    21    49    1
    44    22    27   ar
    45    22    23   ar
    46    23    24   ar
    47    23    50    1
    48    24    25   ar
    49    24    51    1
    50    25    26   ar
    51    25    52    1
    52    26    27   ar
    53    26    53    1
    54    27    54    1
    55    28    29   ar
    56    28    55    1
    57    29    56    1
