@<TRIPOS>MOLECULE
ZINC000091645915
 42 44 0 0 0
SMALL
GASTEIGER

@<TRIPOS>ATOM
      1 C          -0.0178    1.4648    0.0101 C.3     1  UNL1       -0.0127
      2 N           0.0021   -0.0041    0.0020 N.3     1  UNL1       -0.3035
      3 C          -1.3151   -0.5412   -0.2964 C.3     1  UNL1        0.0159
      4 C          -1.2447   -2.0435   -0.5866 C.3     1  UNL1        0.0446
      5 H          -2.0858   -2.3173   -1.2235 H       1  UNL1        0.0492
      6 C           0.0388   -2.4711   -1.2644 C.3     1  UNL1       -0.0342
      7 C           1.2627   -2.2625   -0.3935 C.3     1  UNL1       -0.0463
      8 C           0.9266   -2.0163    1.0655 C.3     1  UNL1       -0.0138
      9 H           1.8063   -2.2503    1.6650 H       1  UNL1        0.0326
     10 C          -0.2384   -2.8672    1.5666 C.3     1  UNL1        0.0248
     11 N          -1.3692   -2.7603    0.6951 N.3     1  UNL1       -0.1720
     12 S          -2.8291   -3.4134    1.1244 S.O2    1  UNL1        0.0611
     13 O          -3.5384   -3.6408   -0.0857 O.2     1  UNL1       -0.1528
     14 O          -2.5481   -4.4406    2.0653 O.2     1  UNL1       -0.1528
     15 C          -3.7206   -2.1693    1.9974 C.ar    1  UNL1        0.1055
     16 C          -3.5915   -2.0607    3.3695 C.ar    1  UNL1       -0.0348
     17 C          -4.2909   -1.0846    4.0543 C.ar    1  UNL1       -0.0483
     18 C          -5.1189   -0.2169    3.3672 C.ar    1  UNL1        0.0549
     19 C          -5.8817    0.8469    4.1139 C.3     1  UNL1        0.4174
     20 F          -5.1096    2.0113    4.1849 F       1  UNL1       -0.1659
     21 F          -7.0781    1.1209    3.4425 F       1  UNL1       -0.1659
     22 F          -6.1656    0.3959    5.4074 F       1  UNL1       -0.1659
     23 C          -5.2469   -0.3246    1.9950 C.ar    1  UNL1       -0.0483
     24 C          -4.5446   -1.2982    1.3096 C.ar    1  UNL1       -0.0348
     25 C           0.6213   -0.5274    1.2221 C.3     1  UNL1        0.0027
     26 H           1.0047    1.8421    0.0024 H       1  UNL1        0.0391
     27 H          -0.5450    1.8259   -0.8730 H       1  UNL1        0.0391
     28 H          -0.5280    1.8163    0.9069 H       1  UNL1        0.0391
     29 H          -1.9721   -0.3721    0.5567 H       1  UNL1        0.0442
     30 H          -1.7220   -0.0274   -1.1674 H       1  UNL1        0.0442
     31 H          -0.0343   -3.5281   -1.5204 H       1  UNL1        0.0281
     32 H           0.1592   -1.8968   -2.1830 H       1  UNL1        0.0281
     33 H           1.8957   -3.1472   -0.4622 H       1  UNL1        0.0269
     34 H           1.8204   -1.4064   -0.7733 H       1  UNL1        0.0269
     35 H           0.0701   -3.9120    1.6008 H       1  UNL1        0.0447
     36 H          -0.5128   -2.5428    2.5704 H       1  UNL1        0.0447
     37 H          -2.9446   -2.7387    3.9063 H       1  UNL1        0.0637
     38 H          -4.1906   -1.0003    5.1264 H       1  UNL1        0.0624
     39 H          -5.8936    0.3536    1.4580 H       1  UNL1        0.0624
     40 H          -4.6446   -1.3824    0.2376 H       1  UNL1        0.0637
     41 H           1.5434    0.0115    1.4399 H       1  UNL1        0.0430
     42 H          -0.0843   -0.3854    2.0406 H       1  UNL1        0.0430
@<TRIPOS>BOND
     1     1     2    1
     2     1    26    1
     3     1    27    1
     4     1    28    1
     5     2    25    1
     6     2     3    1
     7     3     4    1
     8     3    29    1
     9     3    30    1
    10     4     5    1
    11     4    11    1
    12     4     6    1
    13     6     7    1
    14     6    31    1
    15     6    32    1
    16     7     8    1
    17     7    33    1
    18     7    34    1
    19     8     9    1
    20     8    10    1
    21     8    25    1
    22    10    11    1
    23    10    35    1
    24    10    36    1
    25    12    11    1
    26    12    13    2
    27    12    14    2
    28    12    15    1
    29    15    24   ar
    30    15    16   ar
    31    16    17   ar
    32    16    37    1
    33    17    18   ar
    34    17    38    1
    35    18    19    1
    36    18    23   ar
    37    19    20    1
    38    19    21    1
    39    19    22    1
    40    23    24   ar
    41    23    39    1
    42    24    40    1
    43    25    41    1
    44    25    42    1
