@<TRIPOS>MOLECULE
ZINC000016090462
 37 38 0 0 0
SMALL
GASTEIGER

@<TRIPOS>ATOM
      1 C          -0.0184    1.5028    0.0103 C.3     1  UNL1        0.0124
      2 C           0.0021   -0.0041    0.0020 C.2     1  UNL1        0.2125
      3 O           1.0605   -0.5961   -0.0113 O.2     1  UNL1       -0.2759
      4 N          -1.1558   -0.6938    0.0094 N.am    1  UNL1       -0.2992
      5 C          -2.4458    0.0103    0.0193 C.3     1  UNL1        0.0291
      6 C          -3.2812   -0.4806   -1.1695 C.3     1  UNL1        0.0363
      7 N          -3.2765   -1.9502   -1.1718 N.3     1  UNL1       -0.1736
      8 S          -4.6992   -2.7976   -1.1639 S.O2    1  UNL1        0.0623
      9 O          -4.4009   -4.0775   -0.6233 O.2     1  UNL1       -0.1528
     10 O          -5.6799   -1.9301   -0.6117 O.2     1  UNL1       -0.1528
     11 C          -5.1582   -3.0620   -2.8444 C.ar    1  UNL1        0.1242
     12 C          -5.2028   -4.3454   -3.3549 C.ar    1  UNL1       -0.0223
     13 C          -5.5629   -4.5529   -4.6736 C.ar    1  UNL1        0.0567
     14 C          -5.6113   -5.9527   -5.2298 C.3     1  UNL1        0.4175
     15 F          -6.8910   -6.4856   -5.0408 F       1  UNL1       -0.1659
     16 F          -5.3163   -5.9218   -6.5970 F       1  UNL1       -0.1659
     17 F          -4.6716   -6.7503   -4.5679 F       1  UNL1       -0.1659
     18 C          -5.8790   -3.4771   -5.4819 C.ar    1  UNL1       -0.0486
     19 C          -5.8347   -2.1929   -4.9723 C.ar    1  UNL1       -0.0410
     20 C          -5.4796   -1.9850   -3.6516 C.ar    1  UNL1        0.0673
     21 CL         -5.4239   -0.3725   -3.0109 Cl      1  UNL1       -0.0815
     22 C          -1.9865   -2.6543   -1.1817 C.3     1  UNL1        0.0363
     23 C          -1.1511   -2.1634    0.0014 C.3     1  UNL1        0.0291
     24 H           1.0042    1.8801    0.0026 H       1  UNL1        0.0323
     25 H          -0.5455    1.8639   -0.8728 H       1  UNL1        0.0323
     26 H          -0.5286    1.8543    0.9071 H       1  UNL1        0.0323
     27 H          -2.9722   -0.2036    0.9495 H       1  UNL1        0.0478
     28 H          -2.2775    1.0835   -0.0702 H       1  UNL1        0.0478
     29 H          -4.3046   -0.1182   -1.0719 H       1  UNL1        0.0459
     30 H          -2.8470   -0.1119   -2.0989 H       1  UNL1        0.0459
     31 H          -4.9559   -5.1863   -2.7239 H       1  UNL1        0.0643
     32 H          -6.1602   -3.6399   -6.5118 H       1  UNL1        0.0623
     33 H          -6.0817   -1.3524   -5.6039 H       1  UNL1        0.0633
     34 H          -2.1549   -3.7275   -1.0922 H       1  UNL1        0.0459
     35 H          -1.4602   -2.4404   -2.1119 H       1  UNL1        0.0459
     36 H          -0.1281   -2.5265   -0.0974 H       1  UNL1        0.0478
     37 H          -1.5839   -2.5303    0.9321 H       1  UNL1        0.0478
@<TRIPOS>BOND
     1     1     2    1
     2     1    24    1
     3     1    25    1
     4     1    26    1
     5     2     3    2
     6     2     4   am
     7     4    23    1
     8     4     5    1
     9     5     6    1
    10     5    27    1
    11     5    28    1
    12     6     7    1
    13     6    29    1
    14     6    30    1
    15     8     7    1
    16     7    22    1
    17     8     9    2
    18     8    10    2
    19     8    11    1
    20    11    20   ar
    21    11    12   ar
    22    12    13   ar
    23    12    31    1
    24    13    14    1
    25    13    18   ar
    26    14    15    1
    27    14    16    1
    28    14    17    1
    29    18    19   ar
    30    18    32    1
    31    19    20   ar
    32    19    33    1
    33    20    21    1
    34    22    23    1
    35    22    34    1
    36    22    35    1
    37    23    36    1
    38    23    37    1
