@<TRIPOS>MOLECULE
ZINC000245039133
 37 39 0 0 0
SMALL
GASTEIGER

@<TRIPOS>ATOM
      1 O           0.0021   -0.0041    0.0020 O.2     1  UNL1       -0.1528
      2 S          -0.0172    1.4168    0.0098 S.O2    1  UNL1        0.0610
      3 O           1.1617    2.2101    0.0028 O.2     1  UNL1       -0.1528
      4 C          -0.9567    1.9094   -1.3970 C.ar    1  UNL1        0.1055
      5 C          -1.8848    1.0442   -1.9458 C.ar    1  UNL1       -0.0348
      6 C          -2.6219    1.4307   -3.0496 C.ar    1  UNL1       -0.0483
      7 C          -2.4313    2.6825   -3.6042 C.ar    1  UNL1        0.0549
      8 C          -3.2345    3.1036   -4.8078 C.3     1  UNL1        0.4174
      9 F          -4.4138    3.7273   -4.3864 F       1  UNL1       -0.1659
     10 F          -2.4843    3.9973   -5.5796 F       1  UNL1       -0.1659
     11 F          -3.5510    1.9771   -5.5746 F       1  UNL1       -0.1659
     12 C          -1.5042    3.5481   -3.0546 C.ar    1  UNL1       -0.0483
     13 C          -0.7699    3.1631   -1.9485 C.ar    1  UNL1       -0.0348
     14 N          -0.8748    1.8654    1.3536 N.3     1  UNL1       -0.1730
     15 C          -0.9544    3.0588    2.2093 C.3     1  UNL1        0.0402
     16 C          -2.3987    2.6584    2.5407 C.3     1  UNL1        0.0520
     17 N          -3.3956    3.1709    1.5975 N.pl3   1  UNL1       -0.3081
     18 C          -4.7062    3.3495    2.0049 C.ar    1  UNL1        0.2154
     19 N          -5.0410    3.0570    3.2530 N.ar    1  UNL1       -0.2229
     20 C          -6.2846    3.2166    3.6746 C.ar    1  UNL1        0.0326
     21 C          -7.2411    3.6957    2.7933 C.ar    1  UNL1       -0.0253
     22 C          -6.8566    3.9917    1.4949 C.ar    1  UNL1        0.0326
     23 N          -5.5951    3.8140    1.1391 N.ar    1  UNL1       -0.2229
     24 C          -1.8966    1.2483    2.2125 C.3     1  UNL1        0.0402
     25 H          -2.0336    0.0662   -1.5125 H       1  UNL1        0.0637
     26 H          -3.3464    0.7545   -3.4788 H       1  UNL1        0.0624
     27 H          -1.3556    4.5263   -3.4877 H       1  UNL1        0.0624
     28 H          -0.0456    3.8394   -1.5191 H       1  UNL1        0.0637
     29 H          -0.2855    3.0218    3.0691 H       1  UNL1        0.0463
     30 H          -0.8796    3.9952    1.6564 H       1  UNL1        0.0463
     31 H          -2.6758    2.8082    3.5842 H       1  UNL1        0.0525
     32 H          -3.1372    3.3852    0.6874 H       1  UNL1        0.1493
     33 H          -6.5515    2.9761    4.6931 H       1  UNL1        0.0831
     34 H          -8.2638    3.8350    3.1112 H       1  UNL1        0.0648
     35 H          -7.5776    4.3664    0.7834 H       1  UNL1        0.0831
     36 H          -2.6213    0.6461    1.6644 H       1  UNL1        0.0463
     37 H          -1.4779    0.7255    3.0724 H       1  UNL1        0.0463
@<TRIPOS>BOND
     1     1     2    2
     2     2     3    2
     3     2     4    1
     4     2    14    1
     5     4    13   ar
     6     4     5   ar
     7     5     6   ar
     8     5    25    1
     9     6     7   ar
    10     6    26    1
    11     7     8    1
    12     7    12   ar
    13     8     9    1
    14     8    10    1
    15     8    11    1
    16    12    13   ar
    17    12    27    1
    18    13    28    1
    19    14    24    1
    20    14    15    1
    21    15    16    1
    22    15    29    1
    23    15    30    1
    24    16    17    1
    25    16    24    1
    26    16    31    1
    27    17    18    1
    28    17    32    1
    29    18    23   ar
    30    18    19   ar
    31    19    20   ar
    32    20    21   ar
    33    20    33    1
    34    21    22   ar
    35    21    34    1
    36    22    23   ar
    37    22    35    1
    38    24    36    1
    39    24    37    1
