@<TRIPOS>MOLECULE
ZINC000046294920
 56 57 0 0 0
SMALL
GASTEIGER

@<TRIPOS>ATOM
      1 C           0.0146    1.5423    0.0425 C.3     1  UNL1       -0.0507
      2 C           0.0399    0.0125    0.0336 C.3     1  UNL1        0.0177
      3 N          -1.3330   -0.4986    0.0347 N.3     1  UNL1       -0.1771
      4 C          -2.0619   -0.6432   -1.2279 C.3     1  UNL1        0.0177
      5 C          -1.7166   -1.9909   -1.8646 C.3     1  UNL1       -0.0507
      6 S          -2.0611   -0.9129    1.4632 S.O2    1  UNL1        0.0608
      7 O          -3.0836   -1.8442    1.1371 O.2     1  UNL1       -0.1528
      8 O          -1.0133   -1.1983    2.3797 O.2     1  UNL1       -0.1528
      9 C          -2.8750    0.5270    2.0706 C.ar    1  UNL1        0.1055
     10 C          -2.2008    1.4042    2.8995 C.ar    1  UNL1       -0.0351
     11 C          -2.8393    2.5338    3.3761 C.ar    1  UNL1       -0.0567
     12 C          -4.1518    2.7866    3.0234 C.ar    1  UNL1       -0.0468
     13 C          -4.8480    4.0179    3.5433 C.3     1  UNL1       -0.0194
     14 C          -4.6313    5.1765    2.5678 C.3     1  UNL1        0.0282
     15 C          -5.3275    6.4078    3.0878 C.2     1  UNL1        0.2175
     16 O          -5.9370    6.3630    4.1354 O.2     1  UNL1       -0.2755
     17 N          -5.2728    7.5587    2.3886 N.am    1  UNL1       -0.2855
     18 C          -5.9982    8.6747    2.8203 C.ar    1  UNL1        0.0334
     19 C          -6.5634    9.5390    1.8918 C.ar    1  UNL1       -0.0402
     20 C          -7.2787   10.6396    2.3211 C.ar    1  UNL1       -0.0564
     21 C          -7.4321   10.8817    3.6739 C.ar    1  UNL1       -0.0385
     22 C          -8.2129   12.0839    4.1388 C.3     1  UNL1        0.0489
     23 C          -9.6640   11.7098    4.2974 C.2     1  UNL1        0.2148
     24 N         -10.5570   12.6326    4.7069 N.am    1  UNL1       -0.3291
     25 O         -10.0284   10.5783    4.0567 O.2     1  UNL1       -0.2757
     26 C          -6.8709   10.0228    4.6010 C.ar    1  UNL1       -0.0564
     27 C          -6.1593    8.9172    4.1781 C.ar    1  UNL1       -0.0402
     28 C          -4.8255    1.9102    2.1934 C.ar    1  UNL1       -0.0567
     29 C          -4.1858    0.7825    1.7138 C.ar    1  UNL1       -0.0351
     30 H           1.0361    1.9226    0.0417 H       1  UNL1        0.0243
     31 H          -0.5078    1.9022   -0.8438 H       1  UNL1        0.0243
     32 H          -0.5025    1.8919    0.9361 H       1  UNL1        0.0243
     33 H           0.5570   -0.3371   -0.8600 H       1  UNL1        0.0441
     34 H           0.5623   -0.3474    0.9199 H       1  UNL1        0.0441
     35 H          -3.1338   -0.5960   -1.0361 H       1  UNL1        0.0441
     36 H          -1.7781    0.1621   -1.9055 H       1  UNL1        0.0441
     37 H          -0.6446   -2.0382   -2.0563 H       1  UNL1        0.0243
     38 H          -2.0003   -2.7962   -1.1870 H       1  UNL1        0.0243
     39 H          -2.2588   -2.0985   -2.8040 H       1  UNL1        0.0243
     40 H          -1.1754    1.2067    3.1751 H       1  UNL1        0.0637
     41 H          -2.3128    3.2188    4.0242 H       1  UNL1        0.0621
     42 H          -5.9153    3.8185    3.6393 H       1  UNL1        0.0318
     43 H          -4.4386    4.2824    4.5183 H       1  UNL1        0.0318
     44 H          -3.5640    5.3758    2.4718 H       1  UNL1        0.0362
     45 H          -5.0407    4.9120    1.5929 H       1  UNL1        0.0362
     46 H          -4.7307    7.6134    1.5861 H       1  UNL1        0.1548
     47 H          -6.4434    9.3508    0.8351 H       1  UNL1        0.0636
     48 H          -7.7185   11.3121    1.5995 H       1  UNL1        0.0621
     49 H          -7.8188   12.4250    5.0962 H       1  UNL1        0.0407
     50 H          -8.1220   12.8829    3.4030 H       1  UNL1        0.0407
     51 H         -10.2656   13.5375    4.8994 H       1  UNL1        0.1449
     52 H         -11.4910   12.3918    4.8090 H       1  UNL1        0.1449
     53 H          -6.9925   10.2146    5.6568 H       1  UNL1        0.0621
     54 H          -5.7212    8.2467    4.9027 H       1  UNL1        0.0636
     55 H          -5.8508    2.1078    1.9176 H       1  UNL1        0.0621
     56 H          -4.7122    0.0978    1.0653 H       1  UNL1        0.0637
@<TRIPOS>BOND
     1     1     2    1
     2     1    30    1
     3     1    31    1
     4     1    32    1
     5     2     3    1
     6     2    33    1
     7     2    34    1
     8     3     4    1
     9     6     3    1
    10     4     5    1
    11     4    35    1
    12     4    36    1
    13     5    37    1
    14     5    38    1
    15     5    39    1
    16     6     7    2
    17     6     8    2
    18     6     9    1
    19     9    29   ar
    20     9    10   ar
    21    10    11   ar
    22    10    40    1
    23    11    12   ar
    24    11    41    1
    25    12    13    1
    26    12    28   ar
    27    13    14    1
    28    13    42    1
    29    13    43    1
    30    14    15    1
    31    14    44    1
    32    14    45    1
    33    15    16    2
    34    15    17   am
    35    17    18    1
    36    17    46    1
    37    18    27   ar
    38    18    19   ar
    39    19    20   ar
    40    19    47    1
    41    20    21   ar
    42    20    48    1
    43    21    22    1
    44    21    26   ar
    45    22    23    1
    46    22    49    1
    47    22    50    1
    48    23    24   am
    49    23    25    2
    50    24    51    1
    51    24    52    1
    52    26    27   ar
    53    26    53    1
    54    27    54    1
    55    28    29   ar
    56    28    55    1
    57    29    56    1
