@<TRIPOS>MOLECULE
ZINC000078657674
 37 38 0 0 0
SMALL
GASTEIGER

@<TRIPOS>ATOM
      1 C          -0.0187    1.5258    0.0104 C.3     1  UNL1       -0.0387
      2 C           0.0021   -0.0041    0.0020 C.3     1  UNL1        0.0992
      3 H          -1.0205   -0.3814    0.0098 H       1  UNL1        0.0583
      4 C           0.7074   -0.4901   -1.2379 C.ar    1  UNL1       -0.0237
      5 C           2.0258   -0.1416   -1.4645 C.ar    1  UNL1       -0.0562
      6 C           2.6729   -0.5874   -2.6018 C.ar    1  UNL1       -0.0498
      7 C           2.0017   -1.3820   -3.5123 C.ar    1  UNL1        0.0548
      8 C           2.7069   -1.8676   -4.7524 C.3     1  UNL1        0.4174
      9 F           3.3223   -3.0959   -4.4882 F       1  UNL1       -0.1659
     10 F           1.7774   -2.0246   -5.7862 F       1  UNL1       -0.1659
     11 F           3.6756   -0.9332   -5.1341 F       1  UNL1       -0.1659
     12 C           0.6837   -1.7316   -3.2850 C.ar    1  UNL1       -0.0498
     13 C           0.0378   -1.2890   -2.1457 C.ar    1  UNL1       -0.0562
     14 S           0.8794   -0.6050    1.4716 S.O2    1  UNL1       -0.0216
     15 O           0.7770   -2.0217    1.5123 O.2     1  UNL1       -0.1735
     16 O           2.1651   -0.0009    1.5099 O.2     1  UNL1       -0.1735
     17 C          -0.1240    0.0859    2.8157 C.3     1  UNL1        0.0775
     18 C          -1.5413   -0.5388    2.8103 C.3     1  UNL1       -0.0307
     19 C          -2.0084   -0.3391    4.2735 C.3     1  UNL1       -0.0513
     20 C          -0.7377   -0.5841    5.1131 C.3     1  UNL1       -0.0513
     21 C           0.4605   -0.3140    4.1862 C.3     1  UNL1       -0.0307
     22 H           1.0039    1.9031    0.0027 H       1  UNL1        0.0251
     23 H          -0.5459    1.8868   -0.8726 H       1  UNL1        0.0251
     24 H          -0.5289    1.8773    0.9072 H       1  UNL1        0.0251
     25 H           2.5502    0.4792   -0.7532 H       1  UNL1        0.0621
     26 H           3.7027   -0.3146   -2.7792 H       1  UNL1        0.0623
     27 H           0.1594   -2.3527   -3.9961 H       1  UNL1        0.0623
     28 H          -0.9919   -1.5621   -1.9681 H       1  UNL1        0.0621
     29 H          -0.1827    1.1707    2.7278 H       1  UNL1        0.0536
     30 H          -2.1955   -0.0064    2.1198 H       1  UNL1        0.0284
     31 H          -1.4953   -1.5989    2.5608 H       1  UNL1        0.0284
     32 H          -2.3737    0.6771    4.4220 H       1  UNL1        0.0266
     33 H          -2.7808   -1.0643    4.5298 H       1  UNL1        0.0266
     34 H          -0.7140    0.0985    5.9625 H       1  UNL1        0.0266
     35 H          -0.7143   -1.6164    5.4624 H       1  UNL1        0.0266
     36 H           1.0654   -1.2151    4.0856 H       1  UNL1        0.0284
     37 H           1.0656    0.4998    4.5858 H       1  UNL1        0.0284
@<TRIPOS>BOND
     1     1     2    1
     2     1    22    1
     3     1    23    1
     4     1    24    1
     5     2     3    1
     6     2     4    1
     7    14     2    1
     8     4    13   ar
     9     4     5   ar
    10     5     6   ar
    11     5    25    1
    12     6     7   ar
    13     6    26    1
    14     7     8    1
    15     7    12   ar
    16     8     9    1
    17     8    10    1
    18     8    11    1
    19    12    13   ar
    20    12    27    1
    21    13    28    1
    22    14    15    2
    23    14    16    2
    24    14    17    1
    25    17    21    1
    26    17    18    1
    27    17    29    1
    28    18    19    1
    29    18    30    1
    30    18    31    1
    31    19    20    1
    32    19    32    1
    33    19    33    1
    34    20    21    1
    35    20    34    1
    36    20    35    1
    37    21    36    1
    38    21    37    1
