@<TRIPOS>MOLECULE
ZINC000012778298
 44 46 0 0 0
SMALL
GASTEIGER

@<TRIPOS>ATOM
      1 C           2.1922    1.3024   -0.1127 C.3     1  UNL1        0.0001
      2 N           2.0169   -0.1506   -0.1775 N.am    1  UNL1       -0.3170
      3 C           0.9976   -0.6755   -0.8859 C.2     1  UNL1        0.2320
      4 O           0.2254    0.0551   -1.4698 O.2     1  UNL1       -0.2740
      5 C           0.8173   -2.1702   -0.9526 C.3     1  UNL1        0.1120
      6 H           1.4525   -2.6516   -0.2091 H       1  UNL1        0.0579
      7 C          -0.6454   -2.5265   -0.6915 C.3     1  UNL1       -0.0016
      8 C          -0.9208   -3.9615   -1.0561 C.ar    1  UNL1       -0.0409
      9 C          -2.0430   -4.5634   -0.5005 C.ar    1  UNL1       -0.0582
     10 C          -2.3582   -5.8725   -0.8005 C.ar    1  UNL1       -0.0615
     11 C          -1.5530   -6.5935   -1.6622 C.ar    1  UNL1       -0.0614
     12 C          -0.4358   -5.9992   -2.2128 C.ar    1  UNL1       -0.0570
     13 C          -0.1145   -4.6841   -1.9072 C.ar    1  UNL1       -0.0284
     14 C           1.1342   -4.1038   -2.5222 C.3     1  UNL1        0.0466
     15 N           1.1693   -2.6548   -2.2975 N.3     1  UNL1       -0.1601
     16 S           1.5850   -1.6053   -3.5091 S.O2    1  UNL1        0.0618
     17 O           1.9353   -0.3816   -2.8774 O.2     1  UNL1       -0.1528
     18 O           2.4646   -2.3150   -4.3705 O.2     1  UNL1       -0.1528
     19 C           0.1262   -1.2832   -4.4434 C.ar    1  UNL1        0.1060
     20 C          -0.1954   -2.0861   -5.5214 C.ar    1  UNL1       -0.0353
     21 C          -1.3400   -1.8333   -6.2545 C.ar    1  UNL1       -0.0594
     22 C          -2.1629   -0.7779   -5.9091 C.ar    1  UNL1       -0.0500
     23 C          -1.8416    0.0247   -4.8302 C.ar    1  UNL1        0.0567
     24 C          -2.7386    1.1757   -4.4539 C.3     1  UNL1        0.4175
     25 F          -3.8233    1.2293   -5.3358 F       1  UNL1       -0.1659
     26 F          -3.2076    0.9940   -3.1484 F       1  UNL1       -0.1659
     27 F          -2.0177    2.3724   -4.5281 F       1  UNL1       -0.1659
     28 C          -0.6996   -0.2306   -4.0947 C.ar    1  UNL1       -0.0237
     29 H           2.3405    1.6957   -1.1184 H       1  UNL1        0.0426
     30 H           1.3043    1.7562    0.3276 H       1  UNL1        0.0426
     31 H           3.0622    1.5365    0.5009 H       1  UNL1        0.0426
     32 H           2.6345   -0.7349    0.2895 H       1  UNL1        0.1484
     33 H          -0.8680   -2.3759    0.3649 H       1  UNL1        0.0334
     34 H          -1.2849   -1.8760   -1.2881 H       1  UNL1        0.0334
     35 H          -2.6739   -4.0017    0.1723 H       1  UNL1        0.0620
     36 H          -3.2316   -6.3330   -0.3629 H       1  UNL1        0.0618
     37 H          -1.7970   -7.6176   -1.9032 H       1  UNL1        0.0618
     38 H           0.1932   -6.5619   -2.8867 H       1  UNL1        0.0621
     39 H           2.0108   -4.5619   -2.0640 H       1  UNL1        0.0493
     40 H           1.1385   -4.3055   -3.5934 H       1  UNL1        0.0493
     41 H           0.4476   -2.9108   -5.7913 H       1  UNL1        0.0637
     42 H          -1.5909   -2.4603   -7.0973 H       1  UNL1        0.0618
     43 H          -3.0566   -0.5800   -6.4822 H       1  UNL1        0.0623
     44 H          -0.4487    0.3964   -3.2519 H       1  UNL1        0.0642
@<TRIPOS>BOND
     1     1     2    1
     2     1    29    1
     3     1    30    1
     4     1    31    1
     5     2     3   am
     6     2    32    1
     7     3     4    2
     8     3     5    1
     9     5     6    1
    10     5    15    1
    11     5     7    1
    12     7     8    1
    13     7    33    1
    14     7    34    1
    15     8    13   ar
    16     8     9   ar
    17     9    10   ar
    18     9    35    1
    19    10    11   ar
    20    10    36    1
    21    11    12   ar
    22    11    37    1
    23    12    13   ar
    24    12    38    1
    25    13    14    1
    26    14    15    1
    27    14    39    1
    28    14    40    1
    29    16    15    1
    30    16    17    2
    31    16    18    2
    32    16    19    1
    33    19    28   ar
    34    19    20   ar
    35    20    21   ar
    36    20    41    1
    37    21    22   ar
    38    21    42    1
    39    22    23   ar
    40    22    43    1
    41    23    24    1
    42    23    28   ar
    43    24    25    1
    44    24    26    1
    45    24    27    1
    46    28    44    1
