@<TRIPOS>MOLECULE
ZINC000089410250
 57 58 0 0 0
SMALL
GASTEIGER

@<TRIPOS>ATOM
      1 C          -0.0173    1.4248    0.0099 C.3     1  UNL1        0.0364
      2 O           0.0021   -0.0041    0.0020 O.3     1  UNL1       -0.3829
      3 C           0.6518   -0.5703   -1.1379 C.3     1  UNL1        0.0485
      4 C           0.6131   -2.0967   -1.0411 C.3     1  UNL1       -0.0150
      5 C           1.3087   -2.7029   -2.2615 C.3     1  UNL1        0.0231
      6 N           1.2717   -4.1645   -2.1688 N.3     1  UNL1       -0.1677
      7 C           0.0984   -4.8994   -2.6480 C.3     1  UNL1        0.0968
      8 C           0.2276   -5.1409   -4.1299 C.2     1  UNL1        0.2288
      9 O           1.2037   -4.7388   -4.7270 O.2     1  UNL1       -0.2743
     10 N          -0.7415   -5.8037   -4.7917 N.am    1  UNL1       -0.3139
     11 C          -0.6159   -6.0385   -6.2322 C.3     1  UNL1        0.0156
     12 C          -1.8412   -6.8060   -6.7327 C.3     1  UNL1       -0.0121
     13 C          -1.7120   -7.0475   -8.2146 C.ar    1  UNL1       -0.0459
     14 C          -2.2074   -6.1199   -9.1118 C.ar    1  UNL1       -0.0585
     15 C          -2.0889   -6.3414  -10.4711 C.ar    1  UNL1       -0.0615
     16 C          -1.4745   -7.4903  -10.9332 C.ar    1  UNL1       -0.0617
     17 C          -0.9782   -8.4174  -10.0360 C.ar    1  UNL1       -0.0615
     18 C          -1.0930   -8.1939   -8.6766 C.ar    1  UNL1       -0.0585
     19 S           2.5560   -4.9861   -1.5224 S.O2    1  UNL1        0.0613
     20 O           2.4962   -6.3039   -2.0504 O.2     1  UNL1       -0.1528
     21 O           3.6885   -4.1404   -1.6697 O.2     1  UNL1       -0.1528
     22 C           2.2647   -5.1302    0.2094 C.ar    1  UNL1        0.1057
     23 C           2.7171   -4.1468    1.0696 C.ar    1  UNL1       -0.0319
     24 C           2.4900   -4.2575    2.4277 C.ar    1  UNL1       -0.0181
     25 C           1.8069   -5.3564    2.9283 C.ar    1  UNL1        0.1202
     26 O           1.5819   -5.4673    4.2639 O.3     1  UNL1       -0.4951
     27 C           0.8722   -6.6254    4.7082 C.3     1  UNL1        0.0788
     28 C           1.3536   -6.3415    2.0630 C.ar    1  UNL1       -0.0181
     29 C           1.5791   -6.2238    0.7052 C.ar    1  UNL1       -0.0319
     30 H           1.0053    1.8021    0.0021 H       1  UNL1        0.0523
     31 H          -0.5445    1.7859   -0.8732 H       1  UNL1        0.0523
     32 H          -0.5275    1.7763    0.9067 H       1  UNL1        0.0523
     33 H           0.1385   -0.2506   -2.0447 H       1  UNL1        0.0560
     34 H           1.6883   -0.2344   -1.1694 H       1  UNL1        0.0560
     35 H           1.1264   -2.4164   -0.1342 H       1  UNL1        0.0300
     36 H          -0.4234   -2.4326   -1.0095 H       1  UNL1        0.0300
     37 H           0.7954   -2.3833   -3.1684 H       1  UNL1        0.0445
     38 H           2.3452   -2.3671   -2.2930 H       1  UNL1        0.0445
     39 H           0.0313   -5.8553   -2.1285 H       1  UNL1        0.0539
     40 H          -0.8010   -4.3155   -2.4521 H       1  UNL1        0.0539
     41 H          -1.5222   -6.1253   -4.3141 H       1  UNL1        0.1487
     42 H          -0.5488   -5.0826   -6.7517 H       1  UNL1        0.0465
     43 H           0.2835   -6.6224   -6.4281 H       1  UNL1        0.0465
     44 H          -1.9083   -7.7619   -6.2132 H       1  UNL1        0.0328
     45 H          -2.7406   -6.2221   -6.5368 H       1  UNL1        0.0328
     46 H          -2.6874   -5.2223   -8.7508 H       1  UNL1        0.0620
     47 H          -2.4766   -5.6171  -11.1722 H       1  UNL1        0.0618
     48 H          -1.3825   -7.6637  -11.9952 H       1  UNL1        0.0618
     49 H          -0.4985   -9.3152  -10.3970 H       1  UNL1        0.0618
     50 H          -0.7052   -8.9182   -7.9756 H       1  UNL1        0.0620
     51 H           3.2488   -3.2915    0.6794 H       1  UNL1        0.0638
     52 H           2.8442   -3.4894    3.0993 H       1  UNL1        0.0655
     53 H          -0.1129   -6.6488    4.2422 H       1  UNL1        0.0660
     54 H           1.4274   -7.5210    4.4293 H       1  UNL1        0.0660
     55 H           0.7607   -6.5897    5.7919 H       1  UNL1        0.0660
     56 H           0.8219   -7.1981    2.4503 H       1  UNL1        0.0655
     57 H           1.2261   -6.9903    0.0312 H       1  UNL1        0.0638
@<TRIPOS>BOND
     1     1     2    1
     2     1    30    1
     3     1    31    1
     4     1    32    1
     5     2     3    1
     6     3     4    1
     7     3    33    1
     8     3    34    1
     9     4     5    1
    10     4    35    1
    11     4    36    1
    12     5     6    1
    13     5    37    1
    14     5    38    1
    15     6     7    1
    16    19     6    1
    17     7     8    1
    18     7    39    1
    19     7    40    1
    20     8     9    2
    21     8    10   am
    22    10    11    1
    23    10    41    1
    24    11    12    1
    25    11    42    1
    26    11    43    1
    27    12    13    1
    28    12    44    1
    29    12    45    1
    30    13    18   ar
    31    13    14   ar
    32    14    15   ar
    33    14    46    1
    34    15    16   ar
    35    15    47    1
    36    16    17   ar
    37    16    48    1
    38    17    18   ar
    39    17    49    1
    40    18    50    1
    41    19    20    2
    42    19    21    2
    43    19    22    1
    44    22    29   ar
    45    22    23   ar
    46    23    24   ar
    47    23    51    1
    48    24    25   ar
    49    24    52    1
    50    25    26    1
    51    25    28   ar
    52    26    27    1
    53    27    53    1
    54    27    54    1
    55    27    55    1
    56    28    29   ar
    57    28    56    1
    58    29    57    1
