@<TRIPOS>MOLECULE
ZINC000076066614
 43 43 0 0 0
SMALL
GASTEIGER

@<TRIPOS>ATOM
      1 C           2.7173   -0.9771    2.2704 C.3     1  UNL1       -0.0415
      2 C           2.2405   -2.4168    2.0685 C.3     1  UNL1        0.0457
      3 O           0.8424   -2.4185    1.7726 O.3     1  UNL1       -0.3705
      4 C           0.2938   -3.7216    1.5650 C.3     1  UNL1        0.1039
      5 H           0.8492   -4.4483    2.1580 H       1  UNL1        0.0664
      6 C           0.3959   -4.0878    0.0830 C.3     1  UNL1       -0.0325
      7 C          -1.1531   -3.7303    1.9861 C.ar    1  UNL1        0.1070
      8 N          -1.7088   -4.6498    2.7006 N.ar    1  UNL1       -0.2447
      9 C          -2.9882   -4.5024    2.9802 C.ar    1  UNL1        0.0660
     10 C          -3.7625   -5.4985    3.8044 C.3     1  UNL1        0.0570
     11 N          -4.2438   -6.5787    2.9397 N.am    1  UNL1       -0.2983
     12 C          -3.4167   -7.7687    2.7250 C.3     1  UNL1        0.0036
     13 C          -5.4474   -6.4777    2.3417 C.2     1  UNL1        0.2210
     14 O          -6.1017   -5.4638    2.4632 O.2     1  UNL1       -0.2750
     15 C          -5.9801   -7.6246    1.5221 C.3     1  UNL1        0.0388
     16 C          -7.4445   -7.3602    1.1663 C.3     1  UNL1       -0.0517
     17 C          -5.1594   -7.7582    0.2378 C.3     1  UNL1       -0.0517
     18 C          -5.8774   -8.9198    2.3300 C.3     1  UNL1       -0.0517
     19 C          -3.5425   -3.3971    2.4734 C.ar    1  UNL1        0.0003
     20 S          -2.2943   -2.5194    1.5924 S.2     1  UNL1       -0.0777
     21 H           3.7837   -0.9759    2.4961 H       1  UNL1        0.0252
     22 H           2.5378   -0.4040    1.3608 H       1  UNL1        0.0252
     23 H           2.1702   -0.5259    3.0981 H       1  UNL1        0.0252
     24 H           2.7876   -2.8681    1.2408 H       1  UNL1        0.0557
     25 H           2.4200   -2.9900    2.9781 H       1  UNL1        0.0557
     26 H           1.4425   -4.0815   -0.2215 H       1  UNL1        0.0258
     27 H          -0.0226   -5.0818   -0.0752 H       1  UNL1        0.0258
     28 H          -0.1594   -3.3611   -0.5099 H       1  UNL1        0.0258
     29 H          -3.1146   -5.9128    4.5769 H       1  UNL1        0.0529
     30 H          -4.6125   -5.0010    4.2715 H       1  UNL1        0.0529
     31 H          -3.5838   -8.4784    3.5353 H       1  UNL1        0.0429
     32 H          -3.6856   -8.2316    1.7755 H       1  UNL1        0.0429
     33 H          -2.3654   -7.4817    2.7045 H       1  UNL1        0.0429
     34 H          -7.5177   -6.4375    0.5907 H       1  UNL1        0.0239
     35 H          -7.8299   -8.1898    0.5734 H       1  UNL1        0.0239
     36 H          -8.0293   -7.2651    2.0812 H       1  UNL1        0.0239
     37 H          -4.1044   -7.6016    0.4628 H       1  UNL1        0.0239
     38 H          -5.2976   -8.7555   -0.1797 H       1  UNL1        0.0239
     39 H          -5.4913   -7.0126   -0.4848 H       1  UNL1        0.0239
     40 H          -6.4622   -8.8247    3.2449 H       1  UNL1        0.0239
     41 H          -6.2628   -9.7494    1.7371 H       1  UNL1        0.0239
     42 H          -4.8342   -9.1082    2.5834 H       1  UNL1        0.0239
     43 H          -4.5727   -3.0934    2.5870 H       1  UNL1        0.0712
@<TRIPOS>BOND
     1     1     2    1
     2     1    21    1
     3     1    22    1
     4     1    23    1
     5     2     3    1
     6     2    24    1
     7     2    25    1
     8     3     4    1
     9     4     5    1
    10     4     6    1
    11     4     7    1
    12     6    26    1
    13     6    27    1
    14     6    28    1
    15     7    20   ar
    16     7     8   ar
    17     8     9   ar
    18     9    10    1
    19     9    19   ar
    20    10    11    1
    21    10    29    1
    22    10    30    1
    23    11    12    1
    24    11    13   am
    25    12    31    1
    26    12    32    1
    27    12    33    1
    28    13    14    2
    29    15    13    1
    30    15    16    1
    31    15    17    1
    32    15    18    1
    33    16    34    1
    34    16    35    1
    35    16    36    1
    36    17    37    1
    37    17    38    1
    38    17    39    1
    39    18    40    1
    40    18    41    1
    41    18    42    1
    42    19    20   ar
    43    19    43    1
