@<TRIPOS>MOLECULE
ZINC000002899105
 47 48 0 0 0
SMALL
GASTEIGER

@<TRIPOS>ATOM
      1 C          -0.0173    1.4248    0.0099 C.3     1  UNL1        0.0365
      2 O           0.0021   -0.0041    0.0020 O.3     1  UNL1       -0.3814
      3 C           0.6518   -0.5703   -1.1379 C.3     1  UNL1        0.0628
      4 C           0.6131   -2.0967   -1.0411 C.3     1  UNL1        0.0350
      5 N          -0.7759   -2.5559   -1.1188 N.am    1  UNL1       -0.3120
      6 C          -1.0549   -3.8729   -1.0544 C.2     1  UNL1        0.2289
      7 O          -0.1561   -4.6779   -0.9320 O.2     1  UNL1       -0.2743
      8 C          -2.4837   -4.3452   -1.1344 C.3     1  UNL1        0.0971
      9 N          -2.5208   -5.8068   -1.0417 N.3     1  UNL1       -0.1635
     10 C          -2.5267   -6.4576    0.2708 C.3     1  UNL1        0.0460
     11 C          -3.9403   -6.5333    0.7876 C.ar    1  UNL1       -0.0317
     12 C          -4.4541   -5.5001    1.5488 C.ar    1  UNL1       -0.0573
     13 C          -5.7508   -5.5695    2.0229 C.ar    1  UNL1       -0.0615
     14 C          -6.5338   -6.6718    1.7354 C.ar    1  UNL1       -0.0617
     15 C          -6.0202   -7.7046    0.9735 C.ar    1  UNL1       -0.0615
     16 C          -4.7250   -7.6333    0.4958 C.ar    1  UNL1       -0.0573
     17 S          -2.5560   -6.7233   -2.4205 S.O2    1  UNL1        0.0616
     18 O          -3.2659   -7.9105   -2.0952 O.2     1  UNL1       -0.1528
     19 O          -2.9427   -5.8502   -3.4729 O.2     1  UNL1       -0.1528
     20 C          -0.8986   -7.2129   -2.7639 C.ar    1  UNL1        0.1055
     21 C          -0.0919   -6.4153   -3.5538 C.ar    1  UNL1       -0.0353
     22 C           1.2084   -6.7994   -3.8231 C.ar    1  UNL1       -0.0599
     23 C           1.7022   -7.9808   -3.3022 C.ar    1  UNL1       -0.0616
     24 C           0.8957   -8.7779   -2.5116 C.ar    1  UNL1       -0.0599
     25 C          -0.4032   -8.3917   -2.2387 C.ar    1  UNL1       -0.0353
     26 H           1.0053    1.8021    0.0021 H       1  UNL1        0.0523
     27 H          -0.5445    1.7859   -0.8732 H       1  UNL1        0.0523
     28 H          -0.5275    1.7763    0.9067 H       1  UNL1        0.0523
     29 H           0.1385   -0.2506   -2.0447 H       1  UNL1        0.0575
     30 H           1.6883   -0.2344   -1.1694 H       1  UNL1        0.0575
     31 H           1.1847   -2.5275   -1.8631 H       1  UNL1        0.0484
     32 H           1.0473   -2.4117   -0.0922 H       1  UNL1        0.0484
     33 H          -1.4948   -1.9121   -1.2167 H       1  UNL1        0.1488
     34 H          -3.0554   -3.9144   -0.3124 H       1  UNL1        0.0539
     35 H          -2.9180   -4.0302   -2.0832 H       1  UNL1        0.0539
     36 H          -2.1191   -7.4644    0.1790 H       1  UNL1        0.0493
     37 H          -1.9163   -5.8804    0.9653 H       1  UNL1        0.0493
     38 H          -3.8424   -4.6388    1.7734 H       1  UNL1        0.0621
     39 H          -6.1520   -4.7626    2.6182 H       1  UNL1        0.0618
     40 H          -7.5466   -6.7263    2.1064 H       1  UNL1        0.0618
     41 H          -6.6318   -8.5660    0.7492 H       1  UNL1        0.0618
     42 H          -4.3238   -8.4402   -0.0995 H       1  UNL1        0.0621
     43 H          -0.4776   -5.4923   -3.9607 H       1  UNL1        0.0637
     44 H           1.8385   -6.1766   -4.4409 H       1  UNL1        0.0618
     45 H           2.7179   -8.2812   -3.5133 H       1  UNL1        0.0618
     46 H           1.2814   -9.7011   -2.1049 H       1  UNL1        0.0618
     47 H          -1.0333   -9.0145   -1.6209 H       1  UNL1        0.0637
@<TRIPOS>BOND
     1     1     2    1
     2     1    26    1
     3     1    27    1
     4     1    28    1
     5     2     3    1
     6     3     4    1
     7     3    29    1
     8     3    30    1
     9     4     5    1
    10     4    31    1
    11     4    32    1
    12     5     6   am
    13     5    33    1
    14     6     7    2
    15     6     8    1
    16     8     9    1
    17     8    34    1
    18     8    35    1
    19     9    10    1
    20    17     9    1
    21    10    11    1
    22    10    36    1
    23    10    37    1
    24    11    16   ar
    25    11    12   ar
    26    12    13   ar
    27    12    38    1
    28    13    14   ar
    29    13    39    1
    30    14    15   ar
    31    14    40    1
    32    15    16   ar
    33    15    41    1
    34    16    42    1
    35    17    18    2
    36    17    19    2
    37    17    20    1
    38    20    25   ar
    39    20    21   ar
    40    21    22   ar
    41    21    43    1
    42    22    23   ar
    43    22    44    1
    44    23    24   ar
    45    23    45    1
    46    24    25   ar
    47    24    46    1
    48    25    47    1
