@<TRIPOS>MOLECULE
ZINC000219751451
 44 46 0 0 0
SMALL
GASTEIGER

@<TRIPOS>ATOM
      1 O          -0.0166   -0.1011   -0.7417 O.2     1  UNL1       -0.2737
      2 C           0.0615    1.0359   -0.3268 C.2     1  UNL1        0.2361
      3 N           1.2688    1.5823   -0.0813 N.am    1  UNL1       -0.2842
      4 C           2.4259    0.8045   -0.2000 C.ar    1  UNL1        0.0335
      5 C           3.4955    1.0125    0.6609 C.ar    1  UNL1       -0.0399
      6 C           4.6363    0.2432    0.5411 C.ar    1  UNL1       -0.0484
      7 C           4.7142   -0.7332   -0.4350 C.ar    1  UNL1        0.0549
      8 C           5.9606   -1.5705   -0.5632 C.3     1  UNL1        0.4174
      9 F           5.8407   -2.7109    0.2383 F       1  UNL1       -0.1659
     10 F           6.1294   -1.9542   -1.8979 F       1  UNL1       -0.1659
     11 F           7.0687   -0.8237   -0.1489 F       1  UNL1       -0.1659
     12 C           3.6506   -0.9432   -1.2935 C.ar    1  UNL1       -0.0484
     13 C           2.5049   -0.1810   -1.1752 C.ar    1  UNL1       -0.0399
     14 C          -1.1913    1.8399   -0.0916 C.3     1  UNL1        0.1081
     15 H          -1.0583    2.4884    0.7743 H       1  UNL1        0.0576
     16 C          -1.5116    2.6895   -1.3395 C.3     1  UNL1       -0.0260
     17 C          -2.5628    1.8269   -2.0867 C.3     1  UNL1       -0.0366
     18 C          -3.3489    1.2032   -0.9066 C.3     1  UNL1        0.0214
     19 N          -2.3304    0.9373    0.1300 N.3     1  UNL1       -0.1647
     20 S          -2.4522   -0.1916    1.3355 S.O2    1  UNL1        0.0615
     21 O          -3.3184   -1.2072    0.8482 O.2     1  UNL1       -0.1528
     22 O          -1.1273   -0.4477    1.7807 O.2     1  UNL1       -0.1528
     23 C          -3.2909    0.5731    2.6833 C.ar    1  UNL1        0.1056
     24 C          -2.5820    1.3271    3.5999 C.ar    1  UNL1       -0.0340
     25 C          -3.2393    1.9272    4.6573 C.ar    1  UNL1       -0.0415
     26 C          -4.6070    1.7732    4.7984 C.ar    1  UNL1        0.0411
     27 CL         -5.4333    2.5271    6.1260 Cl      1  UNL1       -0.0835
     28 C          -5.3159    1.0185    3.8808 C.ar    1  UNL1       -0.0415
     29 C          -4.6583    0.4236    2.8206 C.ar    1  UNL1       -0.0340
     30 H           1.3356    2.5147    0.1776 H       1  UNL1        0.1549
     31 H           3.4356    1.7754    1.4230 H       1  UNL1        0.0636
     32 H           5.4684    0.4045    1.2103 H       1  UNL1        0.0624
     33 H           3.7145   -1.7065   -2.0549 H       1  UNL1        0.0624
     34 H           1.6746   -0.3455   -1.8460 H       1  UNL1        0.0636
     35 H          -1.9360    3.6516   -1.0524 H       1  UNL1        0.0286
     36 H          -0.6202    2.8272   -1.9515 H       1  UNL1        0.0286
     37 H          -3.2117    2.4490   -2.7031 H       1  UNL1        0.0279
     38 H          -2.0800    1.0550   -2.6859 H       1  UNL1        0.0279
     39 H          -4.0936    1.9062   -0.5332 H       1  UNL1        0.0444
     40 H          -3.8258    0.2737   -1.2176 H       1  UNL1        0.0444
     41 H          -1.5143    1.4470    3.4899 H       1  UNL1        0.0637
     42 H          -2.6853    2.5159    5.3735 H       1  UNL1        0.0633
     43 H          -6.3835    0.8977    3.9906 H       1  UNL1        0.0633
     44 H          -5.2116   -0.1653    2.1040 H       1  UNL1        0.0637
@<TRIPOS>BOND
     1     1     2    2
     2     2     3   am
     3     2    14    1
     4     3     4    1
     5     3    30    1
     6     4    13   ar
     7     4     5   ar
     8     5     6   ar
     9     5    31    1
    10     6     7   ar
    11     6    32    1
    12     7     8    1
    13     7    12   ar
    14     8     9    1
    15     8    10    1
    16     8    11    1
    17    12    13   ar
    18    12    33    1
    19    13    34    1
    20    14    15    1
    21    14    19    1
    22    14    16    1
    23    16    17    1
    24    16    35    1
    25    16    36    1
    26    17    18    1
    27    17    37    1
    28    17    38    1
    29    18    19    1
    30    18    39    1
    31    18    40    1
    32    20    19    1
    33    20    21    2
    34    20    22    2
    35    20    23    1
    36    23    29   ar
    37    23    24   ar
    38    24    25   ar
    39    24    41    1
    40    25    26   ar
    41    25    42    1
    42    26    27    1
    43    26    28   ar
    44    28    29   ar
    45    28    43    1
    46    29    44    1
