@<TRIPOS>MOLECULE
ZINC000078657678
 37 38 0 0 0
SMALL
GASTEIGER

@<TRIPOS>ATOM
      1 C           0.0393    1.5241    0.0386 C.3     1  UNL1       -0.0387
      2 C          -0.1121    0.0048   -0.0591 C.3     1  UNL1        0.0992
      3 H          -1.1703   -0.2528   -0.1032 H       1  UNL1        0.0583
      4 C           0.5121   -0.6411    1.1510 C.ar    1  UNL1       -0.0237
      5 C           1.8545   -0.4513    1.4207 C.ar    1  UNL1       -0.0562
      6 C           2.4270   -1.0437    2.5307 C.ar    1  UNL1       -0.0498
      7 C           1.6570   -1.8257    3.3712 C.ar    1  UNL1        0.0548
      8 C           2.2813   -2.4719    4.5811 C.3     1  UNL1        0.4174
      9 F           2.1800   -1.6072    5.6761 F       1  UNL1       -0.1659
     10 F           1.6138   -3.6676    4.8677 F       1  UNL1       -0.1659
     11 F           3.6296   -2.7410    4.3225 F       1  UNL1       -0.1659
     12 C           0.3143   -2.0144    3.1023 C.ar    1  UNL1       -0.0498
     13 C          -0.2591   -1.4188    1.9944 C.ar    1  UNL1       -0.0562
     14 S           0.7182   -0.5905   -1.5581 S.O2    1  UNL1       -0.0216
     15 O          -0.0101   -0.1352   -2.6901 O.2     1  UNL1       -0.1735
     16 O           2.1035   -0.2906   -1.4578 O.2     1  UNL1       -0.1735
     17 C           0.5039   -2.3863   -1.4171 C.3     1  UNL1        0.0775
     18 C          -0.9935   -2.7644   -1.5340 C.3     1  UNL1       -0.0307
     19 C          -0.9379   -4.2406   -1.9997 C.3     1  UNL1       -0.0513
     20 C           0.2530   -4.2837   -2.9793 C.3     1  UNL1       -0.0513
     21 C           1.1697   -3.1047   -2.6089 C.3     1  UNL1       -0.0307
     22 H           1.0949    1.7786    0.1343 H       1  UNL1        0.0251
     23 H          -0.3663    1.9882   -0.8604 H       1  UNL1        0.0251
     24 H          -0.5027    1.8879    0.9115 H       1  UNL1        0.0251
     25 H           2.4561    0.1596    0.7639 H       1  UNL1        0.0621
     26 H           3.4760   -0.8960    2.7409 H       1  UNL1        0.0623
     27 H          -0.2874   -2.6250    3.7592 H       1  UNL1        0.0623
     28 H          -1.3082   -1.5662    1.7843 H       1  UNL1        0.0621
     29 H           0.9179   -2.7461   -0.4751 H       1  UNL1        0.0536
     30 H          -1.4892   -2.6829   -0.5667 H       1  UNL1        0.0284
     31 H          -1.4919   -2.1431   -2.2782 H       1  UNL1        0.0284
     32 H          -0.7585   -4.9016   -1.1517 H       1  UNL1        0.0266
     33 H          -1.8615   -4.5148   -2.5096 H       1  UNL1        0.0266
     34 H           0.7923   -5.2246   -2.8703 H       1  UNL1        0.0266
     35 H          -0.1022   -4.1729   -4.0039 H       1  UNL1        0.0266
     36 H           1.2595   -2.4218   -3.4537 H       1  UNL1        0.0284
     37 H           2.1540   -3.4734   -2.3201 H       1  UNL1        0.0284
@<TRIPOS>BOND
     1     1     2    1
     2     1    22    1
     3     1    23    1
     4     1    24    1
     5     2     3    1
     6     2     4    1
     7    14     2    1
     8     4    13   ar
     9     4     5   ar
    10     5     6   ar
    11     5    25    1
    12     6     7   ar
    13     6    26    1
    14     7     8    1
    15     7    12   ar
    16     8     9    1
    17     8    10    1
    18     8    11    1
    19    12    13   ar
    20    12    27    1
    21    13    28    1
    22    14    15    2
    23    14    16    2
    24    14    17    1
    25    17    21    1
    26    17    18    1
    27    17    29    1
    28    18    19    1
    29    18    30    1
    30    18    31    1
    31    19    20    1
    32    19    32    1
    33    19    33    1
    34    20    21    1
    35    20    34    1
    36    20    35    1
    37    21    36    1
    38    21    37    1
