@<TRIPOS>MOLECULE
ZINC000007703263
 33 34 0 0 0
SMALL
GASTEIGER

@<TRIPOS>ATOM
      1 C          -0.0187    1.5258    0.0104 C.3     1  UNL1       -0.0478
      2 C           0.0021   -0.0041    0.0020 C.3     1  UNL1        0.0288
      3 H          -1.0205   -0.3814    0.0098 H       1  UNL1        0.0477
      4 N           0.7106   -0.4894    1.1889 N.3     1  UNL1       -0.1869
      5 S          -0.1388   -0.9023    2.5492 S.O2    1  UNL1        0.0586
      6 O           0.8172   -1.3600    3.4957 O.2     1  UNL1       -0.1530
      7 O          -1.0332    0.1718    2.8052 O.2     1  UNL1       -0.1530
      8 C          -1.1377   -2.2943    2.1379 C.ar    1  UNL1        0.1053
      9 C          -2.4137   -2.1065    1.6405 C.ar    1  UNL1       -0.0348
     10 C          -3.1974   -3.1986    1.3178 C.ar    1  UNL1       -0.0483
     11 C          -2.7048   -4.4784    1.4921 C.ar    1  UNL1        0.0549
     12 C          -3.5593   -5.6690    1.1408 C.3     1  UNL1        0.4174
     13 F          -3.3434   -6.0198   -0.1962 F       1  UNL1       -0.1659
     14 F          -3.2201   -6.7463    1.9662 F       1  UNL1       -0.1659
     15 F          -4.9079   -5.3461    1.3262 F       1  UNL1       -0.1659
     16 C          -1.4283   -4.6661    1.9882 C.ar    1  UNL1       -0.0483
     17 C          -0.6432   -3.5740    2.3073 C.ar    1  UNL1       -0.0348
     18 C           0.7182   -0.4975   -1.2568 C.3     1  UNL1       -0.0242
     19 C          -0.0023   -1.5368   -2.1180 C.3     1  UNL1       -0.0485
     20 C           0.1281   -0.0937   -2.6094 C.3     1  UNL1       -0.0485
     21 H           1.0039    1.9031    0.0027 H       1  UNL1        0.0245
     22 H          -0.5459    1.8868   -0.8726 H       1  UNL1        0.0245
     23 H          -0.5289    1.8773    0.9072 H       1  UNL1        0.0245
     24 H           1.6773   -0.5688    1.1779 H       1  UNL1        0.1483
     25 H          -2.7985   -1.1066    1.5044 H       1  UNL1        0.0637
     26 H          -4.1946   -3.0519    0.9299 H       1  UNL1        0.0624
     27 H          -1.0433   -5.6660    2.1240 H       1  UNL1        0.0624
     28 H           0.3541   -3.7207    2.6948 H       1  UNL1        0.0637
     29 H           1.8033   -0.5699   -1.1825 H       1  UNL1        0.0316
     30 H           0.6087   -2.2933   -2.6104 H       1  UNL1        0.0269
     31 H          -0.9865   -1.8690   -1.7877 H       1  UNL1        0.0269
     32 H          -0.7703    0.5234   -2.6025 H       1  UNL1        0.0269
     33 H           0.8249    0.0991   -3.4251 H       1  UNL1        0.0269
@<TRIPOS>BOND
     1     1     2    1
     2     1    21    1
     3     1    22    1
     4     1    23    1
     5     2     3    1
     6     2     4    1
     7     2    18    1
     8     5     4    1
     9     4    24    1
    10     5     6    2
    11     5     7    2
    12     5     8    1
    13     8    17   ar
    14     8     9   ar
    15     9    10   ar
    16     9    25    1
    17    10    11   ar
    18    10    26    1
    19    11    12    1
    20    11    16   ar
    21    12    13    1
    22    12    14    1
    23    12    15    1
    24    16    17   ar
    25    16    27    1
    26    17    28    1
    27    18    20    1
    28    18    19    1
    29    18    29    1
    30    19    20    1
    31    19    30    1
    32    19    31    1
    33    20    32    1
    34    20    33    1
