@<TRIPOS>MOLECULE
ZINC000022229480
 43 43 0 0 0
SMALL
GASTEIGER

@<TRIPOS>ATOM
      1 C          -0.0187    1.5258    0.0104 C.3     1  UNL1       -0.0507
      2 C           0.0021   -0.0041    0.0020 C.3     1  UNL1        0.0177
      3 N           0.6878   -0.4765   -1.2033 N.3     1  UNL1       -0.1771
      4 C           2.1478   -0.5966   -1.2159 C.3     1  UNL1        0.0177
      5 C           2.5532   -1.9514   -0.6319 C.3     1  UNL1       -0.0507
      6 S          -0.1875   -0.8749   -2.5515 S.O2    1  UNL1        0.0608
      7 O           0.6166   -1.7761   -3.3001 O.2     1  UNL1       -0.1528
      8 O          -1.4970   -1.1925   -2.1004 O.2     1  UNL1       -0.1528
      9 C          -0.3375    0.5853   -3.5262 C.ar    1  UNL1        0.1055
     10 C          -1.4057    1.4405   -3.3300 C.ar    1  UNL1       -0.0351
     11 C          -1.5234    2.5861   -4.0947 C.ar    1  UNL1       -0.0567
     12 C          -0.5727    2.8767   -5.0552 C.ar    1  UNL1       -0.0458
     13 C          -0.7013    4.1253   -5.8892 C.3     1  UNL1       -0.0120
     14 C           0.0204    5.2805   -5.1924 C.3     1  UNL1        0.0160
     15 N          -0.1047    6.4943   -6.0031 N.am    1  UNL1       -0.3073
     16 C           0.4570    7.6455   -5.5839 C.2     1  UNL1        0.2988
     17 O           1.0662    7.6766   -4.5348 O.2     1  UNL1       -0.2652
     18 C           0.3295    8.8838   -6.4109 C.2     1  UNL1        0.2964
     19 N           0.8911   10.0350   -5.9917 N.am    1  UNL1       -0.3216
     20 O          -0.2798    8.8527   -7.4599 O.2     1  UNL1       -0.2654
     21 C           0.4962    2.0221   -5.2504 C.ar    1  UNL1       -0.0567
     22 C           0.6160    0.8786   -4.4831 C.ar    1  UNL1       -0.0351
     23 H           1.0039    1.9031    0.0027 H       1  UNL1        0.0243
     24 H          -0.5459    1.8868   -0.8726 H       1  UNL1        0.0243
     25 H          -0.5289    1.8773    0.9072 H       1  UNL1        0.0243
     26 H           0.5293   -0.3651    0.8851 H       1  UNL1        0.0441
     27 H          -1.0205   -0.3814    0.0098 H       1  UNL1        0.0441
     28 H           2.5098   -0.5199   -2.2412 H       1  UNL1        0.0441
     29 H           2.5833    0.2026   -0.6162 H       1  UNL1        0.0441
     30 H           2.1912   -2.0280    0.3934 H       1  UNL1        0.0243
     31 H           2.1177   -2.7506   -1.2316 H       1  UNL1        0.0243
     32 H           3.6395   -2.0407   -0.6413 H       1  UNL1        0.0243
     33 H          -2.1485    1.2135   -2.5796 H       1  UNL1        0.0637
     34 H          -2.3583    3.2539   -3.9419 H       1  UNL1        0.0621
     35 H          -0.2543    3.9556   -6.8687 H       1  UNL1        0.0328
     36 H          -1.7555    4.3750   -6.0092 H       1  UNL1        0.0328
     37 H          -0.4267    5.4502   -4.2129 H       1  UNL1        0.0465
     38 H           1.0745    5.0308   -5.0723 H       1  UNL1        0.0465
     39 H          -0.5916    6.4695   -6.8416 H       1  UNL1        0.1492
     40 H           1.3781   10.0598   -5.1531 H       1  UNL1        0.1454
     41 H           0.8083   10.8387   -6.5284 H       1  UNL1        0.1454
     42 H           1.2392    2.2494   -6.0006 H       1  UNL1        0.0621
     43 H           1.4511    0.2109   -4.6357 H       1  UNL1        0.0637
@<TRIPOS>BOND
     1     1     2    1
     2     1    23    1
     3     1    24    1
     4     1    25    1
     5     2     3    1
     6     2    26    1
     7     2    27    1
     8     3     4    1
     9     6     3    1
    10     4     5    1
    11     4    28    1
    12     4    29    1
    13     5    30    1
    14     5    31    1
    15     5    32    1
    16     6     7    2
    17     6     8    2
    18     6     9    1
    19     9    22   ar
    20     9    10   ar
    21    10    11   ar
    22    10    33    1
    23    11    12   ar
    24    11    34    1
    25    12    13    1
    26    12    21   ar
    27    13    14    1
    28    13    35    1
    29    13    36    1
    30    14    15    1
    31    14    37    1
    32    14    38    1
    33    15    16   am
    34    15    39    1
    35    16    17    2
    36    16    18    1
    37    18    19   am
    38    18    20    2
    39    19    40    1
    40    19    41    1
    41    21    22   ar
    42    21    42    1
    43    22    43    1
