@<TRIPOS>MOLECULE
ZINC000013059066
 61 63 0 0 0
SMALL
GASTEIGER

@<TRIPOS>ATOM
      1 C           3.5767   -0.1357    2.6473 C.3     1  UNL1       -0.0379
      2 C           3.6399   -0.8232    3.9868 C.ar    1  UNL1       -0.0290
      3 C           4.7538   -1.5625    4.3325 C.ar    1  UNL1       -0.0571
      4 C           4.8123   -2.1941    5.5615 C.ar    1  UNL1       -0.0611
      5 C           3.7567   -2.0873    6.4479 C.ar    1  UNL1       -0.0565
      6 C           2.6397   -1.3489    6.1084 C.ar    1  UNL1       -0.0233
      7 C           1.4898   -1.2325    7.0754 C.3     1  UNL1       -0.0198
      8 C           0.9337   -2.6257    7.3765 C.3     1  UNL1       -0.0586
      9 C           1.9785   -0.5869    8.3736 C.3     1  UNL1       -0.0586
     10 C           2.5801   -0.7092    4.8774 C.ar    1  UNL1        0.0398
     11 N           1.4504    0.0400    4.5306 N.am    1  UNL1       -0.2840
     12 C           1.5515    1.3735    4.3629 C.2     1  UNL1        0.2313
     13 O           2.6327    1.9156    4.4520 O.2     1  UNL1       -0.2741
     14 C           0.3210    2.1908    4.0647 C.3     1  UNL1        0.0761
     15 N           0.7106    3.5807    3.7920 N.3     1  UNL1       -0.2915
     16 C           1.6206    3.6563    2.6413 C.3     1  UNL1        0.0138
     17 C           1.8584    5.1259    2.2780 C.3     1  UNL1        0.0333
     18 N           2.3171    5.8364    3.4814 N.3     1  UNL1       -0.1741
     19 S           3.6847    6.7696    3.4480 S.O2    1  UNL1        0.0609
     20 O           4.1517    6.8453    4.7879 O.2     1  UNL1       -0.1528
     21 O           4.4778    6.2809    2.3749 O.2     1  UNL1       -0.1528
     22 C           3.1921    8.4009    2.9998 C.ar    1  UNL1        0.1055
     23 C           3.1496    8.7688    1.6680 C.ar    1  UNL1       -0.0348
     24 C           2.7632   10.0486    1.3164 C.ar    1  UNL1       -0.0483
     25 C           2.4187   10.9604    2.2966 C.ar    1  UNL1        0.0549
     26 C           1.9979   12.3558    1.9134 C.3     1  UNL1        0.4174
     27 F           0.6122   12.3895    1.7239 F       1  UNL1       -0.1659
     28 F           2.3509   13.2460    2.9332 F       1  UNL1       -0.1659
     29 F           2.6399   12.7272    0.7272 F       1  UNL1       -0.1659
     30 C           2.4599   10.5921    3.6284 C.ar    1  UNL1       -0.0483
     31 C           2.8426    9.3111    3.9798 C.ar    1  UNL1       -0.0348
     32 C           1.5287    5.6964    4.7151 C.3     1  UNL1        0.0333
     33 C           1.3039    4.2043    4.9825 C.3     1  UNL1        0.0138
     34 H           4.0930    0.8225    2.7059 H       1  UNL1        0.0278
     35 H           4.0565   -0.7615    1.8948 H       1  UNL1        0.0278
     36 H           2.5349    0.0291    2.3722 H       1  UNL1        0.0278
     37 H           5.5800   -1.6479    3.6422 H       1  UNL1        0.0621
     38 H           5.6843   -2.7724    5.8291 H       1  UNL1        0.0618
     39 H           3.8052   -2.5820    7.4067 H       1  UNL1        0.0621
     40 H           0.7061   -0.6157    6.6355 H       1  UNL1        0.0344
     41 H           1.7174   -3.2425    7.8164 H       1  UNL1        0.0235
     42 H           0.1019   -2.5415    8.0759 H       1  UNL1        0.0235
     43 H           0.5855   -3.0856    6.4516 H       1  UNL1        0.0235
     44 H           1.1467   -0.5028    9.0730 H       1  UNL1        0.0235
     45 H           2.7622   -1.2037    8.8135 H       1  UNL1        0.0235
     46 H           2.3747    0.4056    8.1591 H       1  UNL1        0.0235
     47 H           0.5944   -0.4004    4.4108 H       1  UNL1        0.1549
     48 H          -0.1868    1.7782    3.1929 H       1  UNL1        0.0522
     49 H          -0.3503    2.1634    4.9230 H       1  UNL1        0.0522
     50 H           2.5704    3.1867    2.8972 H       1  UNL1        0.0440
     51 H           1.1759    3.1389    1.7913 H       1  UNL1        0.0440
     52 H           2.6199    5.1924    1.5010 H       1  UNL1        0.0456
     53 H           0.9287    5.5702    1.9226 H       1  UNL1        0.0456
     54 H           3.4187    8.0564    0.9022 H       1  UNL1        0.0637
     55 H           2.7307   10.3362    0.2759 H       1  UNL1        0.0624
     56 H           2.1904   11.3044    4.3942 H       1  UNL1        0.0624
     57 H           2.8748    9.0234    5.0202 H       1  UNL1        0.0637
     58 H           2.0722    6.1400    5.5493 H       1  UNL1        0.0456
     59 H           0.5673    6.1955    4.5939 H       1  UNL1        0.0456
     60 H           0.6295    4.0843    5.8303 H       1  UNL1        0.0440
     61 H           2.2581    3.7270    5.2058 H       1  UNL1        0.0440
@<TRIPOS>BOND
     1     1     2    1
     2     1    34    1
     3     1    35    1
     4     1    36    1
     5     2    10   ar
     6     2     3   ar
     7     3     4   ar
     8     3    37    1
     9     4     5   ar
    10     4    38    1
    11     5     6   ar
    12     5    39    1
    13     6     7    1
    14     6    10   ar
    15     7     8    1
    16     7     9    1
    17     7    40    1
    18     8    41    1
    19     8    42    1
    20     8    43    1
    21     9    44    1
    22     9    45    1
    23     9    46    1
    24    10    11    1
    25    11    12   am
    26    11    47    1
    27    12    13    2
    28    12    14    1
    29    14    15    1
    30    14    48    1
    31    14    49    1
    32    15    33    1
    33    15    16    1
    34    16    17    1
    35    16    50    1
    36    16    51    1
    37    17    18    1
    38    17    52    1
    39    17    53    1
    40    19    18    1
    41    18    32    1
    42    19    20    2
    43    19    21    2
    44    19    22    1
    45    22    31   ar
    46    22    23   ar
    47    23    24   ar
    48    23    54    1
    49    24    25   ar
    50    24    55    1
    51    25    26    1
    52    25    30   ar
    53    26    27    1
    54    26    28    1
    55    26    29    1
    56    30    31   ar
    57    30    56    1
    58    31    57    1
    59    32    33    1
    60    32    58    1
    61    32    59    1
    62    33    60    1
    63    33    61    1
