@<TRIPOS>MOLECULE
ZINC000005512776
 53 54 0 0 0
SMALL
GASTEIGER

@<TRIPOS>ATOM
      1 C          -0.0316    1.5408   -0.0377 C.3     1  UNL1       -0.0507
      2 C          -0.0084    0.0110   -0.0502 C.3     1  UNL1        0.0177
      3 N          -1.3819   -0.4984   -0.0307 N.3     1  UNL1       -0.1771
      4 C          -2.1287   -0.6394   -1.2832 C.3     1  UNL1        0.0177
      5 C          -1.7941   -1.9862   -1.9276 C.3     1  UNL1       -0.0507
      6 S          -2.0903   -0.9148    1.4070 S.O2    1  UNL1        0.0609
      7 O          -3.1185   -1.8442    1.0934 O.2     1  UNL1       -0.1528
      8 O          -1.0300   -1.2035    2.3080 O.2     1  UNL1       -0.1528
      9 C          -2.8936    0.5248    2.0289 C.ar    1  UNL1        0.1075
     10 C          -2.2050    1.3982    2.8499 C.ar    1  UNL1       -0.0318
     11 C          -2.8302    2.5297    3.3411 C.ar    1  UNL1       -0.0163
     12 C          -4.1498    2.7907    3.0109 C.ar    1  UNL1        0.1413
     13 O          -4.7657    3.9031    3.4927 O.3     1  UNL1       -0.4933
     14 C          -3.9918    4.7599    4.3347 C.3     1  UNL1        0.0789
     15 C          -4.8444    1.9108    2.1834 C.ar    1  UNL1        0.0774
     16 N          -6.1794    2.1699    1.8456 N.am    1  UNL1       -0.2825
     17 C          -6.9938    1.1562    1.4911 C.2     1  UNL1        0.2175
     18 O          -6.6016    0.0105    1.5607 O.2     1  UNL1       -0.2755
     19 C          -8.3916    1.4462    1.0083 C.3     1  UNL1        0.0271
     20 C          -9.0986    0.1312    0.6736 C.3     1  UNL1       -0.0328
     21 C          -9.4061   -0.6634    1.9671 C.3     1  UNL1       -0.0498
     22 C         -10.5863   -1.5704    1.5387 C.3     1  UNL1       -0.0528
     23 C         -11.4326   -0.6761    0.6093 C.3     1  UNL1       -0.0528
     24 C         -10.4868    0.4058    0.0593 C.3     1  UNL1       -0.0498
     25 C          -4.2091    0.7810    1.6901 C.ar    1  UNL1       -0.0105
     26 H           0.9902    1.9198   -0.0521 H       1  UNL1        0.0243
     27 H          -0.5661    1.9033   -0.9158 H       1  UNL1        0.0243
     28 H          -0.5356    1.8891    0.8639 H       1  UNL1        0.0243
     29 H           0.4955   -0.3373   -0.9517 H       1  UNL1        0.0441
     30 H           0.5260   -0.3515    0.8279 H       1  UNL1        0.0441
     31 H          -3.1977   -0.5912   -1.0762 H       1  UNL1        0.0441
     32 H          -1.8535    0.1670   -1.9630 H       1  UNL1        0.0441
     33 H          -0.7251   -2.0343   -2.1346 H       1  UNL1        0.0243
     34 H          -2.0693   -2.7925   -1.2478 H       1  UNL1        0.0243
     35 H          -2.3498   -2.0911   -2.8595 H       1  UNL1        0.0243
     36 H          -1.1762    1.1961    3.1088 H       1  UNL1        0.0638
     37 H          -2.2895    3.2098    3.9826 H       1  UNL1        0.0655
     38 H          -3.6613    4.2047    5.2125 H       1  UNL1        0.0660
     39 H          -3.1228    5.1212    3.7849 H       1  UNL1        0.0660
     40 H          -4.6011    5.6073    4.6489 H       1  UNL1        0.0660
     41 H          -6.5174    3.0788    1.8668 H       1  UNL1        0.1549
     42 H          -8.9449    1.9677    1.7893 H       1  UNL1        0.0361
     43 H          -8.3456    2.0711    0.1164 H       1  UNL1        0.0361
     44 H          -8.4912   -0.4649   -0.0074 H       1  UNL1        0.0305
     45 H          -8.5464   -1.2633    2.2655 H       1  UNL1        0.0268
     46 H          -9.7073    0.0085    2.7708 H       1  UNL1        0.0268
     47 H         -10.2199   -2.4433    0.9984 H       1  UNL1        0.0265
     48 H         -11.1682   -1.8754    2.4084 H       1  UNL1        0.0265
     49 H         -11.8390   -1.2686   -0.2104 H       1  UNL1        0.0265
     50 H         -12.2424   -0.2127    1.1729 H       1  UNL1        0.0265
     51 H         -10.8375    1.3943    0.3560 H       1  UNL1        0.0268
     52 H         -10.4341    0.3384   -1.0274 H       1  UNL1        0.0268
     53 H          -4.7445    0.0972    1.0482 H       1  UNL1        0.0657
@<TRIPOS>BOND
     1     1     2    1
     2     1    26    1
     3     1    27    1
     4     1    28    1
     5     2     3    1
     6     2    29    1
     7     2    30    1
     8     3     4    1
     9     6     3    1
    10     4     5    1
    11     4    31    1
    12     4    32    1
    13     5    33    1
    14     5    34    1
    15     5    35    1
    16     6     7    2
    17     6     8    2
    18     6     9    1
    19     9    25   ar
    20     9    10   ar
    21    10    11   ar
    22    10    36    1
    23    11    12   ar
    24    11    37    1
    25    12    13    1
    26    12    15   ar
    27    13    14    1
    28    14    38    1
    29    14    39    1
    30    14    40    1
    31    15    16    1
    32    15    25   ar
    33    16    17   am
    34    16    41    1
    35    17    18    2
    36    17    19    1
    37    19    20    1
    38    19    42    1
    39    19    43    1
    40    20    24    1
    41    20    21    1
    42    20    44    1
    43    21    22    1
    44    21    45    1
    45    21    46    1
    46    22    23    1
    47    22    47    1
    48    22    48    1
    49    23    24    1
    50    23    49    1
    51    23    50    1
    52    24    51    1
    53    24    52    1
    54    25    53    1
