@<TRIPOS>MOLECULE
ZINC000225833854
 47 48 0 0 0
SMALL
GASTEIGER

@<TRIPOS>ATOM
      1 C          -0.0187    1.5258    0.0104 C.3     1  UNL1       -0.0497
      2 C           0.0021   -0.0041    0.0020 C.3     1  UNL1        0.0049
      3 C           0.7421   -0.5109    1.2415 C.3     1  UNL1       -0.0497
      4 N          -1.3761   -0.5125    0.0124 N.3     1  UNL1       -0.2974
      5 C          -2.1266    0.0242    1.1555 C.3     1  UNL1        0.0136
      6 C          -3.5991   -0.3813    1.0312 C.3     1  UNL1        0.0329
      7 N          -3.6697   -1.8417    0.8714 N.3     1  UNL1       -0.1787
      8 S          -4.6598   -2.7552    1.8345 S.O2    1  UNL1        0.0322
      9 O          -4.0467   -4.0370    1.8515 O.2     1  UNL1       -0.1580
     10 O          -4.7930   -1.9910    3.0250 O.2     1  UNL1       -0.1580
     11 C          -6.2350   -2.8149    0.9368 C.3     1  UNL1        0.0859
     12 C          -7.2457   -3.6412    1.7346 C.3     1  UNL1       -0.0068
     13 C          -8.5543   -3.6907    0.9888 C.ar    1  UNL1       -0.0458
     14 C          -9.5134   -2.7202    1.2105 C.ar    1  UNL1       -0.0580
     15 C         -10.7137   -2.7657    0.5264 C.ar    1  UNL1       -0.0499
     16 C         -10.9548   -3.7814   -0.3797 C.ar    1  UNL1        0.0548
     17 C         -12.2636   -3.8312   -1.1251 C.3     1  UNL1        0.4174
     18 F         -12.1481   -3.1110   -2.3189 F       1  UNL1       -0.1659
     19 F         -12.5862   -5.1618   -1.4126 F       1  UNL1       -0.1659
     20 F         -13.2716   -3.2671   -0.3359 F       1  UNL1       -0.1659
     21 C          -9.9952   -4.7512   -0.6024 C.ar    1  UNL1       -0.0499
     22 C          -8.7933   -4.7035    0.0789 C.ar    1  UNL1       -0.0580
     23 C          -2.8379   -2.4691   -0.1667 C.3     1  UNL1        0.0329
     24 C          -1.3954   -1.9814    0.0047 C.3     1  UNL1        0.0136
     25 H           1.0039    1.9031    0.0027 H       1  UNL1        0.0245
     26 H          -0.5459    1.8868   -0.8726 H       1  UNL1        0.0245
     27 H          -0.5289    1.8773    0.9072 H       1  UNL1        0.0245
     28 H           0.5123   -0.3556   -0.8948 H       1  UNL1        0.0457
     29 H           0.2319   -0.1594    2.1383 H       1  UNL1        0.0245
     30 H           0.7568   -1.6008    1.2356 H       1  UNL1        0.0245
     31 H           1.7647   -0.1336    1.2338 H       1  UNL1        0.0245
     32 H          -1.7156   -0.3776    2.0816 H       1  UNL1        0.0440
     33 H          -2.0482    1.1114    1.1639 H       1  UNL1        0.0440
     34 H          -4.1377   -0.0850    1.9313 H       1  UNL1        0.0456
     35 H          -4.0404    0.1041    0.1607 H       1  UNL1        0.0456
     36 H          -6.6167   -1.8024    0.8050 H       1  UNL1        0.0519
     37 H          -6.0797   -3.2745   -0.0393 H       1  UNL1        0.0519
     38 H          -6.8640   -4.6536    1.8663 H       1  UNL1        0.0329
     39 H          -7.4010   -3.1815    2.7107 H       1  UNL1        0.0329
     40 H          -9.3250   -1.9266    1.9184 H       1  UNL1        0.0620
     41 H         -11.4633   -2.0078    0.7001 H       1  UNL1        0.0623
     42 H         -10.1834   -5.5445   -1.3106 H       1  UNL1        0.0623
     43 H          -8.0436   -5.4612   -0.0951 H       1  UNL1        0.0620
     44 H          -2.8732   -3.5531   -0.0585 H       1  UNL1        0.0456
     45 H          -3.2060   -2.1845   -1.1524 H       1  UNL1        0.0456
     46 H          -0.7866   -2.3488   -0.8214 H       1  UNL1        0.0440
     47 H          -0.9945   -2.3553    0.9468 H       1  UNL1        0.0440
@<TRIPOS>BOND
     1     1     2    1
     2     1    25    1
     3     1    26    1
     4     1    27    1
     5     2     3    1
     6     2     4    1
     7     2    28    1
     8     3    29    1
     9     3    30    1
    10     3    31    1
    11     4    24    1
    12     4     5    1
    13     5     6    1
    14     5    32    1
    15     5    33    1
    16     6     7    1
    17     6    34    1
    18     6    35    1
    19     8     7    1
    20     7    23    1
    21     8     9    2
    22     8    10    2
    23     8    11    1
    24    11    12    1
    25    11    36    1
    26    11    37    1
    27    12    13    1
    28    12    38    1
    29    12    39    1
    30    13    22   ar
    31    13    14   ar
    32    14    15   ar
    33    14    40    1
    34    15    16   ar
    35    15    41    1
    36    16    17    1
    37    16    21   ar
    38    17    18    1
    39    17    19    1
    40    17    20    1
    41    21    22   ar
    42    21    42    1
    43    22    43    1
    44    23    24    1
    45    23    44    1
    46    23    45    1
    47    24    46    1
    48    24    47    1
