@<TRIPOS>MOLECULE
ZINC000096104317
 40 42 0 0 0
SMALL
GASTEIGER

@<TRIPOS>ATOM
      1 O           0.0021   -0.0041    0.0020 O.2     1  UNL1       -0.1690
      2 S          -0.0172    1.4168    0.0098 S.O2    1  UNL1        0.0022
      3 O           1.1903    2.1659    0.0023 O.2     1  UNL1       -0.1690
      4 C          -0.8061    1.8490   -1.5052 C.ar    1  UNL1        0.0887
      5 C          -1.6949    0.9704   -2.0963 C.ar    1  UNL1       -0.0342
      6 C          -2.3142    1.3083   -3.2846 C.ar    1  UNL1       -0.0247
      7 C          -2.0447    2.5275   -3.8829 C.ar    1  UNL1        0.1235
      8 F          -2.6499    2.8591   -5.0444 F       1  UNL1       -0.2055
      9 C          -1.1547    3.4069   -3.2898 C.ar    1  UNL1       -0.0247
     10 C          -0.5402    3.0688   -2.0990 C.ar    1  UNL1       -0.0342
     11 C          -1.1394    2.0311    1.2958 C.3     1  UNL1        0.1105
     12 C          -2.2969    1.0692    1.6196 C.3     1  UNL1        0.0444
     13 N          -2.0452    1.4025    3.0350 N.3     1  UNL1       -0.1728
     14 S          -2.9633    1.3824    4.4131 S.O2    1  UNL1        0.0610
     15 O          -2.3586    2.3023    5.3116 O.2     1  UNL1       -0.1528
     16 O          -4.3176    1.4809    3.9944 O.2     1  UNL1       -0.1528
     17 C          -2.7814   -0.2134    5.1377 C.ar    1  UNL1        0.1055
     18 C          -3.6448   -1.2343    4.7868 C.ar    1  UNL1       -0.0348
     19 C          -3.5021   -2.4863    5.3553 C.ar    1  UNL1       -0.0483
     20 C          -2.4957   -2.7174    6.2743 C.ar    1  UNL1        0.0549
     21 C          -2.3404   -4.0821    6.8944 C.3     1  UNL1        0.4174
     22 F          -1.4803   -4.8564    6.1083 F       1  UNL1       -0.1659
     23 F          -1.8061   -3.9518    8.1807 F       1  UNL1       -0.1659
     24 F          -3.5908   -4.7051    6.9697 F       1  UNL1       -0.1659
     25 C          -1.6314   -1.6969    6.6241 C.ar    1  UNL1       -0.0483
     26 C          -1.7717   -0.4460    6.0528 C.ar    1  UNL1       -0.0348
     27 C          -0.6467    1.7611    2.7291 C.3     1  UNL1        0.0444
     28 H          -1.9050    0.0195   -1.6295 H       1  UNL1        0.0637
     29 H          -3.0080    0.6215   -3.7466 H       1  UNL1        0.0647
     30 H          -0.9435    4.3580   -3.7557 H       1  UNL1        0.0647
     31 H           0.1538    3.7547   -1.6359 H       1  UNL1        0.0637
     32 H          -1.4560    3.0604    1.1272 H       1  UNL1        0.0567
     33 H          -3.2659    1.4089    1.2538 H       1  UNL1        0.0463
     34 H          -2.0871    0.0293    1.3691 H       1  UNL1        0.0463
     35 H          -4.4311   -1.0537    4.0688 H       1  UNL1        0.0637
     36 H          -4.1772   -3.2837    5.0817 H       1  UNL1        0.0624
     37 H          -0.8449   -1.8776    7.3418 H       1  UNL1        0.0624
     38 H          -1.0965    0.3513    6.3261 H       1  UNL1        0.0637
     39 H           0.0479    0.9245    2.8046 H       1  UNL1        0.0463
     40 H          -0.2980    2.6533    3.2492 H       1  UNL1        0.0463
@<TRIPOS>BOND
     1     1     2    2
     2     2     3    2
     3     2     4    1
     4     2    11    1
     5     4    10   ar
     6     4     5   ar
     7     5     6   ar
     8     5    28    1
     9     6     7   ar
    10     6    29    1
    11     7     8    1
    12     7     9   ar
    13     9    10   ar
    14     9    30    1
    15    10    31    1
    16    11    27    1
    17    11    12    1
    18    11    32    1
    19    12    13    1
    20    12    33    1
    21    12    34    1
    22    14    13    1
    23    13    27    1
    24    14    15    2
    25    14    16    2
    26    14    17    1
    27    17    26   ar
    28    17    18   ar
    29    18    19   ar
    30    18    35    1
    31    19    20   ar
    32    19    36    1
    33    20    21    1
    34    20    25   ar
    35    21    22    1
    36    21    23    1
    37    21    24    1
    38    25    26   ar
    39    25    37    1
    40    26    38    1
    41    27    39    1
    42    27    40    1
