@<TRIPOS>MOLECULE
ZINC000024864871
 52 54 0 0 0
SMALL
GASTEIGER

@<TRIPOS>ATOM
      1 C           0.9100   -0.2588   -1.2034 C.3     1  UNL1       -0.0409
      2 C           0.0069    0.0086    0.0023 C.3     1  UNL1        0.0848
      3 H          -0.2731    1.0618    0.0201 H       1  UNL1        0.0556
      4 C          -1.2345   -0.8395   -0.1020 C.2     1  UNL1        0.2342
      5 O          -1.4101   -1.7555    0.6733 O.2     1  UNL1       -0.2738
      6 N          -2.1495   -0.5800   -1.0569 N.am    1  UNL1       -0.2842
      7 C          -3.3486   -1.3005   -1.0911 C.ar    1  UNL1        0.0334
      8 C          -4.5237   -0.6772   -1.4899 C.ar    1  UNL1       -0.0405
      9 C          -5.7056   -1.3911   -1.5225 C.ar    1  UNL1       -0.0600
     10 C          -5.7197   -2.7249   -1.1582 C.ar    1  UNL1       -0.0616
     11 C          -4.5513   -3.3484   -0.7602 C.ar    1  UNL1       -0.0600
     12 C          -3.3649   -2.6418   -0.7318 C.ar    1  UNL1       -0.0405
     13 N           0.7271   -0.3276    1.2377 N.3     1  UNL1       -0.2892
     14 C           1.1994   -1.7183    1.2099 C.3     1  UNL1        0.0141
     15 C           2.0954   -1.9744    2.4264 C.3     1  UNL1        0.0333
     16 N           1.3565   -1.5927    3.6395 N.3     1  UNL1       -0.1741
     17 S           1.2277   -2.6353    4.9196 S.O2    1  UNL1        0.0609
     18 O           0.0664   -2.2451    5.6396 O.2     1  UNL1       -0.1528
     19 O           1.4131   -3.9421    4.3930 O.2     1  UNL1       -0.1528
     20 C           2.5988   -2.3281    5.9826 C.ar    1  UNL1        0.1055
     21 C           3.7836   -3.0163    5.7990 C.ar    1  UNL1       -0.0348
     22 C           4.8593   -2.7752    6.6330 C.ar    1  UNL1       -0.0483
     23 C           4.7505   -1.8456    7.6503 C.ar    1  UNL1        0.0549
     24 C           5.9231   -1.5832    8.5599 C.3     1  UNL1        0.4174
     25 F           6.7088   -0.5575    8.0235 F       1  UNL1       -0.1659
     26 F           5.4574   -1.2021    9.8229 F       1  UNL1       -0.1659
     27 F           6.6914   -2.7464    8.6775 F       1  UNL1       -0.1659
     28 C           3.5662   -1.1565    7.8331 C.ar    1  UNL1       -0.0483
     29 C           2.4917   -1.3948    6.9967 C.ar    1  UNL1       -0.0348
     30 C           0.7356   -0.2602    3.6857 C.3     1  UNL1        0.0333
     31 C          -0.1069   -0.0716    2.4196 C.3     1  UNL1        0.0141
     32 H           1.1900   -1.3121   -1.2212 H       1  UNL1        0.0249
     33 H           0.3756   -0.0093   -2.1201 H       1  UNL1        0.0249
     34 H           1.8079    0.3546   -1.1279 H       1  UNL1        0.0249
     35 H          -1.9769    0.1061   -1.7205 H       1  UNL1        0.1549
     36 H          -4.5135    0.3648   -1.7739 H       1  UNL1        0.0636
     37 H          -6.6199   -0.9069   -1.8326 H       1  UNL1        0.0618
     38 H          -6.6452   -3.2809   -1.1843 H       1  UNL1        0.0618
     39 H          -4.5657   -4.3901   -0.4756 H       1  UNL1        0.0618
     40 H          -2.4527   -3.1293   -0.4208 H       1  UNL1        0.0636
     41 H           0.3443   -2.3935    1.2394 H       1  UNL1        0.0440
     42 H           1.7684   -1.8910    0.2963 H       1  UNL1        0.0440
     43 H           2.3554   -3.0319    2.4735 H       1  UNL1        0.0456
     44 H           3.0021   -1.3748    2.3460 H       1  UNL1        0.0456
     45 H           3.8686   -3.7425    5.0042 H       1  UNL1        0.0637
     46 H           5.7847   -3.3134    6.4900 H       1  UNL1        0.0624
     47 H           3.4813   -0.4299    8.6277 H       1  UNL1        0.0624
     48 H           1.5664   -0.8563    7.1395 H       1  UNL1        0.0637
     49 H           0.0965   -0.1844    4.5654 H       1  UNL1        0.0456
     50 H           1.5116    0.5041    3.7264 H       1  UNL1        0.0456
     51 H          -0.4853    0.9499    2.3834 H       1  UNL1        0.0440
     52 H          -0.9438   -0.7698    2.4323 H       1  UNL1        0.0440
@<TRIPOS>BOND
     1     1     2    1
     2     1    32    1
     3     1    33    1
     4     1    34    1
     5     2     3    1
     6     2     4    1
     7     2    13    1
     8     4     5    2
     9     4     6   am
    10     6     7    1
    11     6    35    1
    12     7    12   ar
    13     7     8   ar
    14     8     9   ar
    15     8    36    1
    16     9    10   ar
    17     9    37    1
    18    10    11   ar
    19    10    38    1
    20    11    12   ar
    21    11    39    1
    22    12    40    1
    23    13    31    1
    24    13    14    1
    25    14    15    1
    26    14    41    1
    27    14    42    1
    28    15    16    1
    29    15    43    1
    30    15    44    1
    31    17    16    1
    32    16    30    1
    33    17    18    2
    34    17    19    2
    35    17    20    1
    36    20    29   ar
    37    20    21   ar
    38    21    22   ar
    39    21    45    1
    40    22    23   ar
    41    22    46    1
    42    23    24    1
    43    23    28   ar
    44    24    25    1
    45    24    26    1
    46    24    27    1
    47    28    29   ar
    48    28    47    1
    49    29    48    1
    50    30    31    1
    51    30    49    1
    52    30    50    1
    53    31    51    1
    54    31    52    1
