@<TRIPOS>MOLECULE
ZINC000028207661
 56 57 0 0 0
SMALL
GASTEIGER

@<TRIPOS>ATOM
      1 C           0.3735   -0.8776    1.1805 C.3     1  UNL1       -0.0613
      2 C           0.0042    0.0165   -0.0049 C.3     1  UNL1       -0.0305
      3 C           0.7089   -0.4746   -1.2431 C.ar    1  UNL1       -0.0475
      4 C           1.9652    0.0090   -1.5596 C.ar    1  UNL1       -0.0568
      5 C           2.6137   -0.4390   -2.6937 C.ar    1  UNL1       -0.0402
      6 C           2.0030   -1.3765   -3.5163 C.ar    1  UNL1        0.0335
      7 N           2.6576   -1.8328   -4.6658 N.am    1  UNL1       -0.2827
      8 C           4.0004   -1.9481   -4.6757 C.2     1  UNL1        0.2548
      9 O           4.6337   -1.7487   -3.6607 O.2     1  UNL1       -0.2717
     10 C           4.7149   -2.3248   -5.9479 C.3     1  UNL1        0.1655
     11 O           6.1219   -2.3825   -5.7048 O.3     1  UNL1       -0.4825
     12 C           6.9168   -2.7112   -6.7570 C.ar    1  UNL1        0.1242
     13 C           6.3548   -2.9671   -7.9990 C.ar    1  UNL1       -0.0178
     14 C           7.1652   -3.3006   -9.0672 C.ar    1  UNL1       -0.0319
     15 C           8.5351   -3.3798   -8.8988 C.ar    1  UNL1        0.1060
     16 S           9.5657   -3.8059  -10.2629 S.O2    1  UNL1        0.0608
     17 O          10.7621   -4.3382   -9.7110 O.2     1  UNL1       -0.1528
     18 O           8.7460   -4.5212  -11.1771 O.2     1  UNL1       -0.1528
     19 N           9.9871   -2.3939  -11.0187 N.3     1  UNL1       -0.1771
     20 C          11.1969   -1.6765  -10.6089 C.3     1  UNL1        0.0177
     21 C          12.3617   -2.0820  -11.5142 C.3     1  UNL1       -0.0507
     22 C           9.1502   -1.8623  -12.0972 C.3     1  UNL1        0.0177
     23 C           8.1706   -0.8363  -11.5240 C.3     1  UNL1       -0.0507
     24 C           9.0979   -3.1246   -7.6617 C.ar    1  UNL1       -0.0290
     25 C           8.2925   -2.7857   -6.5919 C.ar    1  UNL1       -0.0069
     26 C           8.9065   -2.5073   -5.2441 C.3     1  UNL1       -0.0362
     27 C           0.7415   -1.8605   -3.1955 C.ar    1  UNL1       -0.0402
     28 C           0.1004   -1.4120   -2.0574 C.ar    1  UNL1       -0.0568
     29 H           0.0683   -1.9029    0.9713 H       1  UNL1        0.0233
     30 H           1.4514   -0.8444    1.3387 H       1  UNL1        0.0233
     31 H          -0.1363   -0.5224    2.0761 H       1  UNL1        0.0233
     32 H          -1.0738   -0.0167   -0.1630 H       1  UNL1        0.0311
     33 H           0.3093    1.0418    0.2044 H       1  UNL1        0.0311
     34 H           2.4396    0.7380   -0.9194 H       1  UNL1        0.0621
     35 H           3.5946   -0.0604   -2.9407 H       1  UNL1        0.0636
     36 H           2.1449   -2.0661   -5.4555 H       1  UNL1        0.1549
     37 H           4.3644   -3.2998   -6.2865 H       1  UNL1        0.0795
     38 H           4.5091   -1.5782   -6.7150 H       1  UNL1        0.0795
     39 H           5.2846   -2.9061   -8.1309 H       1  UNL1        0.0655
     40 H           6.7281   -3.4999  -10.0345 H       1  UNL1        0.0638
     41 H          11.0285   -0.6029  -10.6924 H       1  UNL1        0.0441
     42 H          11.4356   -1.9275   -9.5754 H       1  UNL1        0.0441
     43 H          12.5301   -3.1557  -11.4306 H       1  UNL1        0.0243
     44 H          12.1231   -1.8311  -12.5477 H       1  UNL1        0.0243
     45 H          13.2618   -1.5483  -11.2093 H       1  UNL1        0.0243
     46 H           9.7822   -1.3830  -12.8449 H       1  UNL1        0.0441
     47 H           8.5935   -2.6770  -12.5603 H       1  UNL1        0.0441
     48 H           7.5479   -0.4407  -12.3264 H       1  UNL1        0.0243
     49 H           7.5387   -1.3156  -10.7763 H       1  UNL1        0.0243
     50 H           8.7274   -0.0216  -11.0609 H       1  UNL1        0.0243
     51 H          10.1683   -3.1868   -7.5327 H       1  UNL1        0.0641
     52 H           9.1453   -1.4467   -5.1657 H       1  UNL1        0.0279
     53 H           8.2003   -2.7798   -4.4599 H       1  UNL1        0.0279
     54 H           9.8182   -3.0942   -5.1320 H       1  UNL1        0.0279
     55 H           0.2640   -2.5896   -3.8333 H       1  UNL1        0.0636
     56 H          -0.8807   -1.7880   -1.8073 H       1  UNL1        0.0621
@<TRIPOS>BOND
     1     1     2    1
     2     1    29    1
     3     1    30    1
     4     1    31    1
     5     2     3    1
     6     2    32    1
     7     2    33    1
     8     3    28   ar
     9     3     4   ar
    10     4     5   ar
    11     4    34    1
    12     5     6   ar
    13     5    35    1
    14     6     7    1
    15     6    27   ar
    16     7     8   am
    17     7    36    1
    18     8     9    2
    19     8    10    1
    20    10    11    1
    21    10    37    1
    22    10    38    1
    23    11    12    1
    24    12    25   ar
    25    12    13   ar
    26    13    14   ar
    27    13    39    1
    28    14    15   ar
    29    14    40    1
    30    15    16    1
    31    15    24   ar
    32    16    17    2
    33    16    18    2
    34    16    19    1
    35    19    20    1
    36    19    22    1
    37    20    21    1
    38    20    41    1
    39    20    42    1
    40    21    43    1
    41    21    44    1
    42    21    45    1
    43    22    23    1
    44    22    46    1
    45    22    47    1
    46    23    48    1
    47    23    49    1
    48    23    50    1
    49    24    25   ar
    50    24    51    1
    51    25    26    1
    52    26    52    1
    53    26    53    1
    54    26    54    1
    55    27    28   ar
    56    27    55    1
    57    28    56    1
