@<TRIPOS>MOLECULE
ZINC000084579080
 36 38 0 0 0
SMALL
GASTEIGER

@<TRIPOS>ATOM
      1 O           0.0021   -0.0041    0.0020 O.co2   1  UNL1       -0.2456
      2 C          -0.0145    1.2150    0.0087 C.2     1  UNL1        0.3649
      3 O           1.0330    1.8389    0.0021 O.co2   1  UNL1       -0.2456
      4 C          -1.3296    1.9507    0.0190 C.3     1  UNL1        0.1047
      5 H          -1.9197    1.6855   -0.8583 H       1  UNL1        0.0481
      6 C          -1.0945    3.4693    0.0682 C.3     1  UNL1        0.0521
      7 N          -1.7201    3.9145    1.3163 N.pl3   1  UNL1       -0.2016
      8 S          -1.7522    5.4798    1.8558 S.O2    1  UNL1        0.0747
      9 O          -1.9249    5.4151    3.2648 O.2     1  UNL1       -0.1498
     10 O          -0.6570    6.1402    1.2365 O.2     1  UNL1       -0.1498
     11 C          -3.2124    6.2244    1.2092 C.ar    1  UNL1        0.1087
     12 C          -3.1792    6.8589   -0.0185 C.ar    1  UNL1       -0.0345
     13 C          -4.3248    7.4431   -0.5257 C.ar    1  UNL1       -0.0483
     14 C          -5.5036    7.3924    0.1945 C.ar    1  UNL1        0.0549
     15 C          -6.7523    8.0297   -0.3583 C.3     1  UNL1        0.4174
     16 F          -7.4538    7.0930   -1.1249 F       1  UNL1       -0.1659
     17 F          -7.5595    8.4666    0.6975 F       1  UNL1       -0.1659
     18 F          -6.4029    9.1211   -1.1607 F       1  UNL1       -0.1659
     19 C          -5.5371    6.7567    1.4215 C.ar    1  UNL1       -0.0483
     20 C          -4.3925    6.1692    1.9270 C.ar    1  UNL1       -0.0345
     21 C          -2.2844    2.8266    1.9843 C.ar    1  UNL1        0.0553
     22 C          -2.9733    2.7942    3.1985 C.ar    1  UNL1       -0.0388
     23 C          -3.4572    1.6010    3.6916 C.ar    1  UNL1       -0.0599
     24 C          -3.2643    0.4272    2.9870 C.ar    1  UNL1       -0.0614
     25 C          -2.5831    0.4511    1.7839 C.ar    1  UNL1       -0.0559
     26 C          -2.0974    1.6414    1.2845 C.ar    1  UNL1       -0.0094
     27 H          -0.0264    3.6863    0.0822 H       1  UNL1        0.0494
     28 H          -1.5683    3.9532   -0.7858 H       1  UNL1        0.0494
     29 H          -2.2582    6.8985   -0.5811 H       1  UNL1        0.0637
     30 H          -4.2987    7.9394   -1.4846 H       1  UNL1        0.0624
     31 H          -6.4582    6.7168    1.9840 H       1  UNL1        0.0624
     32 H          -4.4186    5.6726    2.8857 H       1  UNL1        0.0637
     33 H          -3.1274    3.7076    3.7538 H       1  UNL1        0.0637
     34 H          -3.9891    1.5833    4.6313 H       1  UNL1        0.0618
     35 H          -3.6444   -0.5061    3.3754 H       1  UNL1        0.0618
     36 H          -2.4316   -0.4649    1.2323 H       1  UNL1        0.0621
@<TRIPOS>BOND
     1     1     2   ar
     2     2     3   ar
     3     2     4    1
     4     4     5    1
     5     4    26    1
     6     4     6    1
     7     6     7    1
     8     6    27    1
     9     6    28    1
    10     8     7    1
    11     7    21    1
    12     8     9    2
    13     8    10    2
    14     8    11    1
    15    11    20   ar
    16    11    12   ar
    17    12    13   ar
    18    12    29    1
    19    13    14   ar
    20    13    30    1
    21    14    15    1
    22    14    19   ar
    23    15    16    1
    24    15    17    1
    25    15    18    1
    26    19    20   ar
    27    19    31    1
    28    20    32    1
    29    21    26   ar
    30    21    22   ar
    31    22    23   ar
    32    22    33    1
    33    23    24   ar
    34    23    34    1
    35    24    25   ar
    36    24    35    1
    37    25    26   ar
    38    25    36    1
