@<TRIPOS>MOLECULE
ZINC000019929576
 44 45 0 0 0
SMALL
GASTEIGER

@<TRIPOS>ATOM
      1 C          -0.0187    1.5258    0.0104 C.3     1  UNL1       -0.0507
      2 C           0.0021   -0.0041    0.0020 C.3     1  UNL1        0.0182
      3 N          -1.3723   -0.5112    0.0124 N.3     1  UNL1       -0.1681
      4 C          -2.1099   -0.6542   -1.2453 C.3     1  UNL1        0.0968
      5 C          -1.7778   -1.9829   -1.8740 C.2     1  UNL1        0.2290
      6 O          -1.0015   -2.7362   -1.3256 O.2     1  UNL1       -0.2743
      7 N          -2.3435   -2.3340   -3.0459 N.am    1  UNL1       -0.3114
      8 C          -2.0207   -3.6257   -3.6571 C.3     1  UNL1        0.0233
      9 C          -3.1774   -4.4405   -4.2393 C.3     1  UNL1       -0.0328
     10 C          -2.1820   -3.7496   -5.1735 C.3     1  UNL1       -0.0328
     11 S          -2.0922   -0.9227    1.4458 S.O2    1  UNL1        0.0613
     12 O          -3.1196   -1.8512    1.1269 O.2     1  UNL1       -0.1528
     13 O          -1.0393   -1.2108    2.3555 O.2     1  UNL1       -0.1528
     14 C          -2.8978    0.5199    2.0580 C.ar    1  UNL1        0.1060
     15 C          -2.2145    1.3947    2.8819 C.ar    1  UNL1       -0.0319
     16 C          -2.8438    2.5268    3.3629 C.ar    1  UNL1       -0.0178
     17 C          -4.1623    2.7852    3.0183 C.ar    1  UNL1        0.1231
     18 O          -4.7833    3.8983    3.4897 O.3     1  UNL1       -0.4948
     19 C          -4.0182    4.7590    4.3357 C.3     1  UNL1        0.0788
     20 C          -4.8460    1.9056    2.1912 C.ar    1  UNL1       -0.0070
     21 C          -6.2784    2.1836    1.8144 C.3     1  UNL1       -0.0362
     22 C          -4.2107    0.7780    1.7088 C.ar    1  UNL1       -0.0290
     23 H           1.0039    1.9031    0.0027 H       1  UNL1        0.0243
     24 H          -0.5459    1.8868   -0.8726 H       1  UNL1        0.0243
     25 H          -0.5289    1.8773    0.9072 H       1  UNL1        0.0243
     26 H           0.5123   -0.3556   -0.8948 H       1  UNL1        0.0441
     27 H           0.5293   -0.3651    0.8851 H       1  UNL1        0.0441
     28 H          -3.1804   -0.6037   -1.0465 H       1  UNL1        0.0539
     29 H          -1.8283    0.1500   -1.9251 H       1  UNL1        0.0539
     30 H          -2.9644   -1.7315   -3.4845 H       1  UNL1        0.1490
     31 H          -1.2023   -4.1747   -3.1915 H       1  UNL1        0.0498
     32 H          -3.1202   -5.5258   -4.1567 H       1  UNL1        0.0284
     33 H          -4.1786   -4.0155   -4.1676 H       1  UNL1        0.0284
     34 H          -2.5282   -2.8702   -5.7164 H       1  UNL1        0.0284
     35 H          -1.4698   -4.3805   -5.7055 H       1  UNL1        0.0284
     36 H          -1.1880    1.1928    3.1502 H       1  UNL1        0.0638
     37 H          -2.3096    3.2097    4.0068 H       1  UNL1        0.0655
     38 H          -3.1442    5.1190    3.7928 H       1  UNL1        0.0660
     39 H          -4.6311    5.6072    4.6409 H       1  UNL1        0.0660
     40 H          -3.6955    4.2075    5.2188 H       1  UNL1        0.0660
     41 H          -6.3051    2.7770    0.9005 H       1  UNL1        0.0279
     42 H          -6.8006    1.2409    1.6510 H       1  UNL1        0.0279
     43 H          -6.7655    2.7340    2.6194 H       1  UNL1        0.0279
     44 H          -4.7423    0.0932    1.0646 H       1  UNL1        0.0641
@<TRIPOS>BOND
     1     1     2    1
     2     1    23    1
     3     1    24    1
     4     1    25    1
     5     2     3    1
     6     2    26    1
     7     2    27    1
     8     3     4    1
     9    11     3    1
    10     4     5    1
    11     4    28    1
    12     4    29    1
    13     5     6    2
    14     5     7   am
    15     7     8    1
    16     7    30    1
    17     8    10    1
    18     8     9    1
    19     8    31    1
    20     9    10    1
    21     9    32    1
    22     9    33    1
    23    10    34    1
    24    10    35    1
    25    11    12    2
    26    11    13    2
    27    11    14    1
    28    14    22   ar
    29    14    15   ar
    30    15    16   ar
    31    15    36    1
    32    16    17   ar
    33    16    37    1
    34    17    18    1
    35    17    20   ar
    36    18    19    1
    37    19    38    1
    38    19    39    1
    39    19    40    1
    40    20    21    1
    41    20    22   ar
    42    21    41    1
    43    21    42    1
    44    21    43    1
    45    22    44    1
