@<TRIPOS>MOLECULE
ZINC000012760978
 64 65 0 0 0
SMALL
GASTEIGER

@<TRIPOS>ATOM
      1 C           0.0069    1.5041   -0.0236 C.3     1  UNL1       -0.0507
      2 C           0.0179   -0.0256    0.0035 C.3     1  UNL1        0.0177
      3 N           0.7027   -0.4876    1.2134 N.3     1  UNL1       -0.1771
      4 C          -0.0369   -0.6106    2.4721 C.3     1  UNL1        0.0177
      5 C          -0.7335   -1.9718    2.5234 C.3     1  UNL1       -0.0507
      6 S           2.3128   -0.8709    1.1584 S.O2    1  UNL1        0.0609
      7 O           2.5491   -1.7665    2.2361 O.2     1  UNL1       -0.1528
      8 O           2.6031   -1.1903   -0.1955 O.2     1  UNL1       -0.1528
      9 C           3.2117    0.5990    1.5267 C.ar    1  UNL1        0.1074
     10 C           3.5844    1.4532    0.5058 C.ar    1  UNL1       -0.0318
     11 C           4.2902    2.6085    0.7886 C.ar    1  UNL1       -0.0156
     12 C           4.6260    2.9124    2.0975 C.ar    1  UNL1        0.1493
     13 O           5.3199    4.0480    2.3771 O.3     1  UNL1       -0.4539
     14 C           6.6622    3.9463    2.5617 C.ar    1  UNL1        0.1322
     15 C           7.3032    2.7345    2.3478 C.ar    1  UNL1       -0.0161
     16 C           8.6682    2.6339    2.5358 C.ar    1  UNL1       -0.0470
     17 C           9.3651    1.3180    2.3036 C.3     1  UNL1       -0.0396
     18 C           9.3954    3.7394    2.9362 C.ar    1  UNL1       -0.0583
     19 C           8.7590    4.9484    3.1502 C.ar    1  UNL1       -0.0546
     20 C           7.3954    5.0557    2.9590 C.ar    1  UNL1       -0.0025
     21 C           6.7025    6.3735    3.1919 C.3     1  UNL1       -0.0180
     22 C           6.9070    6.8075    4.6448 C.3     1  UNL1       -0.0585
     23 C           7.2909    7.4314    2.2561 C.3     1  UNL1       -0.0585
     24 C           4.2505    2.0516    3.1274 C.ar    1  UNL1        0.0723
     25 N           4.5866    2.3536    4.4518 N.pl3   1  UNL1       -0.3325
     26 C           4.1909    1.4475    5.5328 C.3     1  UNL1        0.0859
     27 C           4.6708    1.9982    6.8509 C.2     1  UNL1        0.2299
     28 O           5.2830    3.0447    6.8841 O.2     1  UNL1       -0.2741
     29 N           4.4197    1.3279    7.9929 N.am    1  UNL1       -0.3171
     30 C           4.8862    1.8633    9.2743 C.3     1  UNL1        0.0001
     31 C           3.5377    0.8981    2.8366 C.ar    1  UNL1       -0.0109
     32 H           1.0319    1.8749   -0.0222 H       1  UNL1        0.0243
     33 H          -0.5026    1.8478   -0.9238 H       1  UNL1        0.0243
     34 H          -0.5165    1.8793    0.8558 H       1  UNL1        0.0243
     35 H          -1.0071   -0.3964    0.0021 H       1  UNL1        0.0441
     36 H           0.5412   -0.4009   -0.8759 H       1  UNL1        0.0441
     37 H           0.6549   -0.5246    3.3099 H       1  UNL1        0.0441
     38 H          -0.7828    0.1818    2.5340 H       1  UNL1        0.0441
     39 H          -1.4254   -2.0578    1.6855 H       1  UNL1        0.0243
     40 H           0.0124   -2.7642    2.4614 H       1  UNL1        0.0243
     41 H          -1.2838   -2.0633    3.4599 H       1  UNL1        0.0243
     42 H           3.3241    1.2175   -0.5155 H       1  UNL1        0.0638
     43 H           4.5799    3.2737   -0.0114 H       1  UNL1        0.0655
     44 H           6.7356    1.8706    2.0349 H       1  UNL1        0.0657
     45 H           9.6874    1.2560    1.2642 H       1  UNL1        0.0278
     46 H          10.2337    1.2465    2.9582 H       1  UNL1        0.0278
     47 H           8.6783    0.4999    2.5205 H       1  UNL1        0.0278
     48 H          10.4624    3.6585    3.0826 H       1  UNL1        0.0620
     49 H           9.3294    5.8104    3.4630 H       1  UNL1        0.0622
     50 H           5.6366    6.2640    2.9920 H       1  UNL1        0.0345
     51 H           6.4059    7.7607    4.8132 H       1  UNL1        0.0235
     52 H           6.4879    6.0538    5.3115 H       1  UNL1        0.0235
     53 H           7.9729    6.9170    4.8447 H       1  UNL1        0.0235
     54 H           7.1452    7.1222    1.2211 H       1  UNL1        0.0235
     55 H           6.7898    8.3846    2.4245 H       1  UNL1        0.0235
     56 H           8.3568    7.5409    2.4560 H       1  UNL1        0.0235
     57 H           5.0815    3.1630    4.6541 H       1  UNL1        0.1467
     58 H           3.1049    1.3560    5.5510 H       1  UNL1        0.0557
     59 H           4.6355    0.4664    5.3655 H       1  UNL1        0.0557
     60 H           3.9300    0.4910    7.9663 H       1  UNL1        0.1484
     61 H           4.5918    1.1891   10.0785 H       1  UNL1        0.0426
     62 H           5.9722    1.9548    9.2561 H       1  UNL1        0.0426
     63 H           4.4416    2.8444    9.4416 H       1  UNL1        0.0426
     64 H           3.2449    0.2291    3.6323 H       1  UNL1        0.0657
@<TRIPOS>BOND
     1     1     2    1
     2     1    32    1
     3     1    33    1
     4     1    34    1
     5     2     3    1
     6     2    35    1
     7     2    36    1
     8     3     4    1
     9     6     3    1
    10     4     5    1
    11     4    37    1
    12     4    38    1
    13     5    39    1
    14     5    40    1
    15     5    41    1
    16     6     7    2
    17     6     8    2
    18     6     9    1
    19     9    31   ar
    20     9    10   ar
    21    10    11   ar
    22    10    42    1
    23    11    12   ar
    24    11    43    1
    25    12    13    1
    26    12    24   ar
    27    13    14    1
    28    14    20   ar
    29    14    15   ar
    30    15    16   ar
    31    15    44    1
    32    16    17    1
    33    16    18   ar
    34    17    45    1
    35    17    46    1
    36    17    47    1
    37    18    19   ar
    38    18    48    1
    39    19    20   ar
    40    19    49    1
    41    20    21    1
    42    21    22    1
    43    21    23    1
    44    21    50    1
    45    22    51    1
    46    22    52    1
    47    22    53    1
    48    23    54    1
    49    23    55    1
    50    23    56    1
    51    24    25    1
    52    24    31   ar
    53    25    26    1
    54    25    57    1
    55    26    27    1
    56    26    58    1
    57    26    59    1
    58    27    28    2
    59    27    29   am
    60    29    30    1
    61    29    60    1
    62    30    61    1
    63    30    62    1
    64    30    63    1
    65    31    64    1
