@<TRIPOS>MOLECULE
ZINC000032867738
 46 47 0 0 0
SMALL
GASTEIGER

@<TRIPOS>ATOM
      1 C           0.0236    1.5271    0.0060 C.3     1  UNL1       -0.0507
      2 C           0.0339   -0.0028   -0.0010 C.3     1  UNL1        0.0177
      3 N           0.7041   -0.4811   -1.2127 N.3     1  UNL1       -0.1771
      4 C           2.1631   -0.6111   -1.2400 C.3     1  UNL1        0.0177
      5 C           2.5652   -1.9680   -0.6586 C.3     1  UNL1       -0.0507
      6 S          -0.1875   -0.8749   -2.5515 S.O2    1  UNL1        0.0608
      7 O           0.6029   -1.7823   -3.3072 O.2     1  UNL1       -0.1528
      8 O          -1.4944   -1.1832   -2.0868 O.2     1  UNL1       -0.1528
      9 C          -0.3375    0.5853   -3.5262 C.ar    1  UNL1        0.1056
     10 C          -1.3987    1.4472   -3.3187 C.ar    1  UNL1       -0.0336
     11 C          -1.5192    2.5926   -4.0811 C.ar    1  UNL1       -0.0384
     12 C          -0.5729    2.8785   -5.0564 C.ar    1  UNL1        0.0364
     13 N          -0.6918    4.0383   -5.8301 N.am    1  UNL1       -0.2706
     14 C           0.3088    4.4902   -6.8040 C.3     1  UNL1        0.0331
     15 C          -0.4205    5.5181   -7.6973 C.3     1  UNL1        0.0807
     16 H          -0.8423    5.0378   -8.5802 H       1  UNL1        0.0434
     17 C           0.5023    6.6436   -8.0882 C.2     1  UNL1        0.3119
     18 O           1.6468    6.6487   -7.7009 O.2     1  UNL1       -0.2505
     19 O           0.0527    7.6405   -8.8666 O.3     1  UNL1       -0.4677
     20 C           0.9968    8.6910   -9.2032 C.3     1  UNL1        0.0817
     21 C          -1.5376    6.0198   -6.7533 C.3     1  UNL1        0.0389
     22 C          -1.7398    4.8786   -5.7810 C.2     1  UNL1        0.2206
     23 O          -2.7038    4.7452   -5.0571 O.2     1  UNL1       -0.2752
     24 C           0.4920    2.0111   -5.2619 C.ar    1  UNL1       -0.0384
     25 C           0.6093    0.8698   -4.4930 C.ar    1  UNL1       -0.0336
     26 H           1.0485    1.8975   -0.0125 H       1  UNL1        0.0243
     27 H          -0.5101    1.8909   -0.8721 H       1  UNL1        0.0243
     28 H          -0.4751    1.8830    0.9075 H       1  UNL1        0.0243
     29 H           0.5675   -0.3666    0.8771 H       1  UNL1        0.0441
     30 H          -0.9911   -0.3731    0.0175 H       1  UNL1        0.0441
     31 H           2.5152   -0.5379   -2.2690 H       1  UNL1        0.0441
     32 H           2.6100    0.1858   -0.6455 H       1  UNL1        0.0441
     33 H           2.1183   -2.7648   -1.2531 H       1  UNL1        0.0243
     34 H           3.6507   -2.0647   -0.6789 H       1  UNL1        0.0243
     35 H           2.2131   -2.0411    0.3704 H       1  UNL1        0.0243
     36 H          -2.1344    1.2244   -2.5601 H       1  UNL1        0.0638
     37 H          -2.3487    3.2650   -3.9191 H       1  UNL1        0.0637
     38 H           1.1469    4.9630   -6.2920 H       1  UNL1        0.0477
     39 H           0.6579    3.6497   -7.4038 H       1  UNL1        0.0477
     40 H           1.3493    9.1693   -8.2893 H       1  UNL1        0.0661
     41 H           1.8436    8.2609   -9.7380 H       1  UNL1        0.0661
     42 H           0.5063    9.4316   -9.8349 H       1  UNL1        0.0661
     43 H          -1.2182    6.9206   -6.2291 H       1  UNL1        0.0367
     44 H          -2.4541    6.2076   -7.3127 H       1  UNL1        0.0367
     45 H           1.2295    2.2306   -6.0197 H       1  UNL1        0.0637
     46 H           1.4372    0.1948   -4.6523 H       1  UNL1        0.0638
@<TRIPOS>BOND
     1     1     2    1
     2     1    26    1
     3     1    27    1
     4     1    28    1
     5     2     3    1
     6     2    29    1
     7     2    30    1
     8     3     4    1
     9     6     3    1
    10     4     5    1
    11     4    31    1
    12     4    32    1
    13     5    33    1
    14     5    34    1
    15     5    35    1
    16     6     7    2
    17     6     8    2
    18     6     9    1
    19     9    25   ar
    20     9    10   ar
    21    10    11   ar
    22    10    36    1
    23    11    12   ar
    24    11    37    1
    25    12    13    1
    26    12    24   ar
    27    13    22   am
    28    13    14    1
    29    14    15    1
    30    14    38    1
    31    14    39    1
    32    15    16    1
    33    15    17    1
    34    15    21    1
    35    17    18    2
    36    17    19    1
    37    19    20    1
    38    20    40    1
    39    20    41    1
    40    20    42    1
    41    21    22    1
    42    21    43    1
    43    21    44    1
    44    22    23    2
    45    24    25   ar
    46    24    45    1
    47    25    46    1
