@<TRIPOS>MOLECULE
ZINC000006707166
 56 57 0 0 0
SMALL
GASTEIGER

@<TRIPOS>ATOM
      1 C          -0.0187    1.5258    0.0104 C.3     1  UNL1       -0.0636
      2 C           0.0021   -0.0041    0.0020 C.3     1  UNL1       -0.0376
      3 C           0.7182   -0.4975   -1.2568 C.3     1  UNL1        0.0201
      4 H           0.2444   -0.0644   -2.1377 H       1  UNL1        0.0495
      5 C           0.6303   -2.0233   -1.3286 C.3     1  UNL1       -0.0466
      6 N           2.1249   -0.0911   -1.2094 N.am    1  UNL1       -0.3116
      7 C           2.8241    0.0515   -2.3527 C.2     1  UNL1        0.2290
      8 O           2.2887   -0.1566   -3.4209 O.2     1  UNL1       -0.2743
      9 C           4.2711    0.4696   -2.3039 C.3     1  UNL1        0.0971
     10 N           4.8016    0.5526   -3.6670 N.3     1  UNL1       -0.1635
     11 C           4.6200    1.7771   -4.4504 C.3     1  UNL1        0.0460
     12 C           5.7185    2.7538   -4.1180 C.ar    1  UNL1       -0.0317
     13 C           5.5505    3.6582   -3.0862 C.ar    1  UNL1       -0.0573
     14 C           6.5581    4.5540   -2.7813 C.ar    1  UNL1       -0.0615
     15 C           7.7341    4.5451   -3.5080 C.ar    1  UNL1       -0.0617
     16 C           7.9025    3.6401   -4.5392 C.ar    1  UNL1       -0.0615
     17 C           6.8965    2.7414   -4.8413 C.ar    1  UNL1       -0.0573
     18 S           5.6067   -0.7377   -4.3221 S.O2    1  UNL1        0.0616
     19 O           6.4435   -0.2121   -5.3433 O.2     1  UNL1       -0.1528
     20 O           6.0998   -1.5001   -3.2290 O.2     1  UNL1       -0.1528
     21 C           4.4078   -1.7447   -5.1304 C.ar    1  UNL1        0.1060
     22 C           3.7695   -2.7526   -4.4321 C.ar    1  UNL1       -0.0319
     23 C           2.8287   -3.5433   -5.0634 C.ar    1  UNL1       -0.0178
     24 C           2.5249   -3.3251   -6.3992 C.ar    1  UNL1        0.1231
     25 O           1.5995   -4.1012   -7.0223 O.3     1  UNL1       -0.4948
     26 C           0.9783   -5.1239   -6.2411 C.3     1  UNL1        0.0788
     27 C           3.1670   -2.3128   -7.0979 C.ar    1  UNL1       -0.0070
     28 C           2.8390   -2.0727   -8.5490 C.3     1  UNL1       -0.0362
     29 C           4.1029   -1.5217   -6.4607 C.ar    1  UNL1       -0.0290
     30 H           1.0039    1.9031    0.0027 H       1  UNL1        0.0230
     31 H          -0.5459    1.8868   -0.8726 H       1  UNL1        0.0230
     32 H          -0.5289    1.8773    0.9072 H       1  UNL1        0.0230
     33 H           0.5293   -0.3651    0.8851 H       1  UNL1        0.0280
     34 H          -1.0205   -0.3814    0.0098 H       1  UNL1        0.0280
     35 H          -0.4163   -2.3257   -1.3639 H       1  UNL1        0.0247
     36 H           1.1405   -2.3748   -2.2254 H       1  UNL1        0.0247
     37 H           1.1041   -2.4564   -0.4477 H       1  UNL1        0.0247
     38 H           2.5531    0.0754   -0.3551 H       1  UNL1        0.1490
     39 H           4.3517    1.4443   -1.8227 H       1  UNL1        0.0539
     40 H           4.8424   -0.2644   -1.7357 H       1  UNL1        0.0539
     41 H           4.6563    1.5373   -5.5131 H       1  UNL1        0.0493
     42 H           3.6540    2.2217   -4.2111 H       1  UNL1        0.0493
     43 H           4.6317    3.6651   -2.5185 H       1  UNL1        0.0621
     44 H           6.4265    5.2611   -1.9756 H       1  UNL1        0.0618
     45 H           8.5210    5.2455   -3.2702 H       1  UNL1        0.0618
     46 H           8.8211    3.6334   -5.1071 H       1  UNL1        0.0618
     47 H           7.0281    2.0343   -5.6470 H       1  UNL1        0.0621
     48 H           4.0066   -2.9224   -3.3922 H       1  UNL1        0.0638
     49 H           2.3305   -4.3309   -4.5176 H       1  UNL1        0.0655
     50 H           0.2627   -5.6678   -6.8576 H       1  UNL1        0.0660
     51 H           1.7389   -5.8128   -5.8736 H       1  UNL1        0.0660
     52 H           0.4596   -4.6710   -5.3962 H       1  UNL1        0.0660
     53 H           2.0213   -1.3557   -8.6229 H       1  UNL1        0.0279
     54 H           3.7169   -1.6763   -9.0592 H       1  UNL1        0.0279
     55 H           2.5415   -3.0123   -9.0146 H       1  UNL1        0.0279
     56 H           4.6027   -0.7334   -7.0040 H       1  UNL1        0.0641
@<TRIPOS>BOND
     1     1     2    1
     2     1    30    1
     3     1    31    1
     4     1    32    1
     5     2     3    1
     6     2    33    1
     7     2    34    1
     8     3     4    1
     9     3     5    1
    10     3     6    1
    11     5    35    1
    12     5    36    1
    13     5    37    1
    14     6     7   am
    15     6    38    1
    16     7     8    2
    17     7     9    1
    18     9    10    1
    19     9    39    1
    20     9    40    1
    21    10    11    1
    22    18    10    1
    23    11    12    1
    24    11    41    1
    25    11    42    1
    26    12    17   ar
    27    12    13   ar
    28    13    14   ar
    29    13    43    1
    30    14    15   ar
    31    14    44    1
    32    15    16   ar
    33    15    45    1
    34    16    17   ar
    35    16    46    1
    36    17    47    1
    37    18    19    2
    38    18    20    2
    39    18    21    1
    40    21    29   ar
    41    21    22   ar
    42    22    23   ar
    43    22    48    1
    44    23    24   ar
    45    23    49    1
    46    24    25    1
    47    24    27   ar
    48    25    26    1
    49    26    50    1
    50    26    51    1
    51    26    52    1
    52    27    28    1
    53    27    29   ar
    54    28    53    1
    55    28    54    1
    56    28    55    1
    57    29    56    1
