@<TRIPOS>MOLECULE
ZINC000059444185
 55 57 0 0 0
SMALL
GASTEIGER

@<TRIPOS>ATOM
      1 C           8.1253   -6.0003    6.3175 C.3     1  UNL1        0.0790
      2 O           7.7986   -4.6438    6.6263 O.3     1  UNL1       -0.4915
      3 C           6.6236   -4.1650    6.1368 C.ar    1  UNL1        0.1616
      4 C           5.8011   -4.9842    5.3811 C.ar    1  UNL1       -0.0145
      5 C           4.6065   -4.4959    4.8844 C.ar    1  UNL1       -0.0317
      6 C           4.2304   -3.1907    5.1399 C.ar    1  UNL1        0.1092
      7 S           2.7073   -2.5742    4.5037 S.O2    1  UNL1        0.0617
      8 O           2.8013   -1.1568    4.5407 O.2     1  UNL1       -0.1528
      9 O           2.4444   -3.3049    3.3137 O.2     1  UNL1       -0.1528
     10 N           1.5211   -2.9924    5.5809 N.3     1  UNL1       -0.1635
     11 C           0.8918   -4.3130    5.5013 C.3     1  UNL1        0.0975
     12 C           1.5850   -5.2577    6.4489 C.2     1  UNL1        0.2330
     13 O           2.5134   -4.8665    7.1243 O.2     1  UNL1       -0.2740
     14 N           1.1734   -6.5374    6.5459 N.am    1  UNL1       -0.2832
     15 C           1.8881   -7.4445    7.3369 C.ar    1  UNL1        0.0519
     16 C           3.2344   -7.2295    7.5980 C.ar    1  UNL1       -0.0390
     17 C           3.9371   -8.1263    8.3795 C.ar    1  UNL1       -0.0599
     18 C           3.3013   -9.2373    8.9018 C.ar    1  UNL1       -0.0603
     19 C           1.9601   -9.4555    8.6437 C.ar    1  UNL1       -0.0416
     20 C           1.2500   -8.5595    7.8676 C.ar    1  UNL1        0.0621
     21 CL         -0.4335   -8.8333    7.5443 Cl      1  UNL1       -0.0816
     22 C           1.1010   -2.0419    6.6134 C.3     1  UNL1        0.0460
     23 C          -0.1735   -1.3629    6.1825 C.ar    1  UNL1       -0.0317
     24 C          -0.1213   -0.2519    5.3616 C.ar    1  UNL1       -0.0573
     25 C          -1.2904    0.3710    4.9663 C.ar    1  UNL1       -0.0615
     26 C          -2.5116   -0.1174    5.3916 C.ar    1  UNL1       -0.0617
     27 C          -2.5639   -1.2289    6.2118 C.ar    1  UNL1       -0.0615
     28 C          -1.3950   -1.8544    6.6036 C.ar    1  UNL1       -0.0573
     29 C           5.0467   -2.3676    5.8940 C.ar    1  UNL1        0.0101
     30 C           6.2422   -2.8522    6.3989 C.ar    1  UNL1        0.1633
     31 O           7.0460   -2.0441    7.1407 O.3     1  UNL1       -0.4914
     32 C           6.5956   -0.7059    7.3604 C.3     1  UNL1        0.0790
     33 H           8.1873   -6.1218    5.2360 H       1  UNL1        0.0660
     34 H           9.0851   -6.2543    6.7673 H       1  UNL1        0.0660
     35 H           7.3527   -6.6593    6.7135 H       1  UNL1        0.0660
     36 H           6.0930   -6.0043    5.1794 H       1  UNL1        0.0656
     37 H           3.9662   -5.1356    4.2954 H       1  UNL1        0.0638
     38 H          -0.1602   -4.2312    5.7746 H       1  UNL1        0.0540
     39 H           0.9742   -4.6940    4.4834 H       1  UNL1        0.0540
     40 H           0.3819   -6.8299    6.0675 H       1  UNL1        0.1549
     41 H           3.7322   -6.3621    7.1903 H       1  UNL1        0.0636
     42 H           4.9846   -7.9594    8.5825 H       1  UNL1        0.0618
     43 H           3.8532   -9.9366    9.5124 H       1  UNL1        0.0618
     44 H           1.4664  -10.3245    9.0529 H       1  UNL1        0.0633
     45 H           0.9307   -2.5739    7.5494 H       1  UNL1        0.0493
     46 H           1.8805   -1.2937    6.7574 H       1  UNL1        0.0493
     47 H           0.8328    0.1297    5.0293 H       1  UNL1        0.0621
     48 H          -1.2496    1.2394    4.3255 H       1  UNL1        0.0618
     49 H          -3.4250    0.3696    5.0834 H       1  UNL1        0.0618
     50 H          -3.5180   -1.6103    6.5443 H       1  UNL1        0.0618
     51 H          -1.4358   -2.7228    7.2444 H       1  UNL1        0.0621
     52 H           4.7505   -1.3481    6.0921 H       1  UNL1        0.0675
     53 H           5.6387   -0.7257    7.8820 H       1  UNL1        0.0660
     54 H           7.3279   -0.1707    7.9649 H       1  UNL1        0.0660
     55 H           6.4766   -0.2006    6.4020 H       1  UNL1        0.0660
@<TRIPOS>BOND
     1     1     2    1
     2     1    33    1
     3     1    34    1
     4     1    35    1
     5     2     3    1
     6     3    30   ar
     7     3     4   ar
     8     4     5   ar
     9     4    36    1
    10     5     6   ar
    11     5    37    1
    12     6     7    1
    13     6    29   ar
    14     7     8    2
    15     7     9    2
    16     7    10    1
    17    10    11    1
    18    10    22    1
    19    11    12    1
    20    11    38    1
    21    11    39    1
    22    12    13    2
    23    12    14   am
    24    14    15    1
    25    14    40    1
    26    15    20   ar
    27    15    16   ar
    28    16    17   ar
    29    16    41    1
    30    17    18   ar
    31    17    42    1
    32    18    19   ar
    33    18    43    1
    34    19    20   ar
    35    19    44    1
    36    20    21    1
    37    22    23    1
    38    22    45    1
    39    22    46    1
    40    23    28   ar
    41    23    24   ar
    42    24    25   ar
    43    24    47    1
    44    25    26   ar
    45    25    48    1
    46    26    27   ar
    47    26    49    1
    48    27    28   ar
    49    27    50    1
    50    28    51    1
    51    29    30   ar
    52    29    52    1
    53    30    31    1
    54    31    32    1
    55    32    53    1
    56    32    54    1
    57    32    55    1
