@<TRIPOS>MOLECULE
ZINC000015386089
 47 49 0 0 0
SMALL
GASTEIGER

@<TRIPOS>ATOM
      1 C          -0.0187    1.5258    0.0104 C.3     1  UNL1       -0.0617
      2 C           0.0021   -0.0041    0.0020 C.3     1  UNL1       -0.0321
      3 H           0.0748   -0.4678   -0.9817 H       1  UNL1        0.0306
      4 C          -0.8275   -0.7277    1.0646 C.3     1  UNL1       -0.0384
      5 C           0.6996   -0.7075    1.1680 C.3     1  UNL1        0.0386
      6 H           1.1434   -0.0805    1.9413 H       1  UNL1        0.0397
      7 C           1.4342   -1.9890    0.8692 C.2     1  UNL1        0.2190
      8 O           1.4566   -2.4255   -0.2621 O.2     1  UNL1       -0.2753
      9 N           2.0663   -2.6500    1.8592 N.am    1  UNL1       -0.2987
     10 C           2.0424   -2.1361    3.2358 C.3     1  UNL1        0.0291
     11 C           1.5002   -3.2339    4.1594 C.3     1  UNL1        0.0363
     12 N           2.2252   -4.4817    3.8817 N.3     1  UNL1       -0.1736
     13 S           3.0009   -5.2944    5.0983 S.O2    1  UNL1        0.0610
     14 O           4.0122   -6.0762    4.4774 O.2     1  UNL1       -0.1528
     15 O           3.2719   -4.3361    6.1119 O.2     1  UNL1       -0.1528
     16 C           1.8443   -6.4321    5.7857 C.ar    1  UNL1        0.1065
     17 C           1.0321   -6.0432    6.8345 C.ar    1  UNL1       -0.0237
     18 C           0.1247   -6.9357    7.3737 C.ar    1  UNL1        0.0572
     19 C          -0.7604   -6.5119    8.5174 C.3     1  UNL1        0.4175
     20 F          -1.9477   -5.9710    8.0125 F       1  UNL1       -0.1659
     21 F          -1.0560   -7.6227    9.3148 F       1  UNL1       -0.1659
     22 F          -0.0991   -5.5484    9.2866 F       1  UNL1       -0.1659
     23 C           0.0289   -8.2170    6.8637 C.ar    1  UNL1       -0.0384
     24 C           0.8408   -8.6058    5.8146 C.ar    1  UNL1        0.0572
     25 C           0.7367  -10.0027    5.2588 C.3     1  UNL1        0.4175
     26 F          -0.2427  -10.7125    5.9619 F       1  UNL1       -0.1659
     27 F           0.3870   -9.9413    3.9056 F       1  UNL1       -0.1659
     28 F           1.9691  -10.6510    5.3931 F       1  UNL1       -0.1659
     29 C           1.7452   -7.7119    5.2725 C.ar    1  UNL1       -0.0237
     30 C           2.2491   -4.9956    2.5050 C.3     1  UNL1        0.0363
     31 C           2.7866   -3.9007    1.5825 C.3     1  UNL1        0.0291
     32 H           1.0039    1.9031    0.0027 H       1  UNL1        0.0233
     33 H          -0.5459    1.8868   -0.8726 H       1  UNL1        0.0233
     34 H          -0.5289    1.8773    0.9072 H       1  UNL1        0.0233
     35 H          -1.3881   -0.1139    1.7696 H       1  UNL1        0.0275
     36 H          -1.3003   -1.6677    0.7800 H       1  UNL1        0.0275
     37 H           3.0527   -1.8656    3.5430 H       1  UNL1        0.0478
     38 H           1.3948   -1.2609    3.2884 H       1  UNL1        0.0478
     39 H           1.6532   -2.9456    5.1994 H       1  UNL1        0.0459
     40 H           0.4366   -3.3789    3.9701 H       1  UNL1        0.0459
     41 H           1.1067   -5.0421    7.2327 H       1  UNL1        0.0642
     42 H          -0.6800   -8.9143    7.2850 H       1  UNL1        0.0629
     43 H           2.3795   -8.0156    4.4529 H       1  UNL1        0.0642
     44 H           2.8967   -5.8708    2.4524 H       1  UNL1        0.0459
     45 H           1.2388   -5.2660    2.1979 H       1  UNL1        0.0459
     46 H           2.6330   -4.1903    0.5429 H       1  UNL1        0.0478
     47 H           3.8501   -3.7535    1.7705 H       1  UNL1        0.0478
@<TRIPOS>BOND
     1     1     2    1
     2     1    32    1
     3     1    33    1
     4     1    34    1
     5     2     3    1
     6     2     5    1
     7     2     4    1
     8     4     5    1
     9     4    35    1
    10     4    36    1
    11     5     6    1
    12     5     7    1
    13     7     8    2
    14     7     9   am
    15     9    31    1
    16     9    10    1
    17    10    11    1
    18    10    37    1
    19    10    38    1
    20    11    12    1
    21    11    39    1
    22    11    40    1
    23    13    12    1
    24    12    30    1
    25    13    14    2
    26    13    15    2
    27    13    16    1
    28    16    29   ar
    29    16    17   ar
    30    17    18   ar
    31    17    41    1
    32    18    19    1
    33    18    23   ar
    34    19    20    1
    35    19    21    1
    36    19    22    1
    37    23    24   ar
    38    23    42    1
    39    24    25    1
    40    24    29   ar
    41    25    26    1
    42    25    27    1
    43    25    28    1
    44    29    43    1
    45    30    31    1
    46    30    44    1
    47    30    45    1
    48    31    46    1
    49    31    47    1
