@<TRIPOS>MOLECULE
ZINC000020032655
 55 56 0 0 0
SMALL
GASTEIGER

@<TRIPOS>ATOM
      1 C          -0.0187    1.5258    0.0104 C.3     1  UNL1       -0.0507
      2 C           0.0021   -0.0041    0.0020 C.3     1  UNL1        0.0177
      3 N           0.7106   -0.4894    1.1889 N.3     1  UNL1       -0.1771
      4 C          -0.0062   -0.6460    2.4569 C.3     1  UNL1        0.0177
      5 C          -0.6935   -2.0126    2.4888 C.3     1  UNL1       -0.0507
      6 S           2.3218   -0.8609    1.0971 S.O2    1  UNL1        0.0608
      7 O           2.5823   -1.7795    2.1496 O.2     1  UNL1       -0.1528
      8 O           2.5905   -1.1471   -0.2686 O.2     1  UNL1       -0.1528
      9 C           3.2182    0.6060    1.4837 C.ar    1  UNL1        0.1057
     10 C           3.5682    1.4865    0.4768 C.ar    1  UNL1       -0.0319
     11 C           4.2709    2.6372    0.7772 C.ar    1  UNL1       -0.0181
     12 C           4.6251    2.9093    2.0907 C.ar    1  UNL1        0.1213
     13 O           5.3160    4.0409    2.3889 O.3     1  UNL1       -0.4828
     14 C           5.6468    4.2561    3.7624 C.3     1  UNL1        0.1651
     15 C           6.4063    5.5505    3.8993 C.2     1  UNL1        0.2509
     16 O           6.6411    6.2226    2.9174 O.2     1  UNL1       -0.2721
     17 N           6.8245    5.9613    5.1129 N.am    1  UNL1       -0.3084
     18 C           7.5628    7.2197    5.2460 C.3     1  UNL1        0.0369
     19 C           7.9116    7.4466    6.6944 C.ar    1  UNL1       -0.0302
     20 C           7.0382    8.1341    7.5162 C.ar    1  UNL1       -0.0552
     21 C           7.3581    8.3423    8.8448 C.ar    1  UNL1       -0.0351
     22 C           8.5514    7.8626    9.3517 C.ar    1  UNL1        0.1050
     23 S           8.9595    8.1284   11.0450 S.O2    1  UNL1        0.0559
     24 N           8.3628    6.8424   11.9008 N.3     1  UNL1       -0.2035
     25 O          10.3754    8.0474   11.1340 O.2     1  UNL1       -0.1533
     26 O           8.2184    9.2667   11.4625 O.2     1  UNL1       -0.1533
     27 C           9.4242    7.1739    8.5302 C.ar    1  UNL1       -0.0351
     28 C           9.1025    6.9624    7.2026 C.ar    1  UNL1       -0.0552
     29 C           4.2723    2.0244    3.0993 C.ar    1  UNL1       -0.0181
     30 C           3.5654    0.8775    2.7942 C.ar    1  UNL1       -0.0319
     31 H           1.0039    1.9031    0.0027 H       1  UNL1        0.0243
     32 H          -0.5459    1.8868   -0.8726 H       1  UNL1        0.0243
     33 H          -0.5289    1.8773    0.9072 H       1  UNL1        0.0243
     34 H          -1.0205   -0.3814    0.0098 H       1  UNL1        0.0441
     35 H           0.5123   -0.3556   -0.8948 H       1  UNL1        0.0441
     36 H           0.6997   -0.5749    3.2845 H       1  UNL1        0.0441
     37 H          -0.7557    0.1399    2.5501 H       1  UNL1        0.0441
     38 H          -1.3993   -2.0837    1.6613 H       1  UNL1        0.0243
     39 H           0.0560   -2.7985    2.3957 H       1  UNL1        0.0243
     40 H          -1.2268   -2.1291    3.4323 H       1  UNL1        0.0243
     41 H           3.2922    1.2742   -0.5456 H       1  UNL1        0.0638
     42 H           4.5447    3.3243   -0.0097 H       1  UNL1        0.0655
     43 H           4.7320    4.3074    4.3527 H       1  UNL1        0.0795
     44 H           6.2647    3.4327    4.1206 H       1  UNL1        0.0795
     45 H           6.6366    5.4238    5.8982 H       1  UNL1        0.1491
     46 H           8.4776    7.1684    4.6557 H       1  UNL1        0.0512
     47 H           6.9449    8.0431    4.8878 H       1  UNL1        0.0512
     48 H           6.1059    8.5089    7.1201 H       1  UNL1        0.0621
     49 H           6.6760    8.8800    9.4866 H       1  UNL1        0.0637
     50 H           7.8906    6.1308   11.4408 H       1  UNL1        0.1442
     51 H           8.4856    6.8006   12.8621 H       1  UNL1        0.1442
     52 H          10.3563    6.7988    8.9264 H       1  UNL1        0.0637
     53 H           9.7844    6.4243    6.5608 H       1  UNL1        0.0621
     54 H           4.5471    2.2339    4.1225 H       1  UNL1        0.0655
     55 H           3.2902    0.1885    3.5791 H       1  UNL1        0.0638
@<TRIPOS>BOND
     1     1     2    1
     2     1    31    1
     3     1    32    1
     4     1    33    1
     5     2     3    1
     6     2    34    1
     7     2    35    1
     8     3     4    1
     9     6     3    1
    10     4     5    1
    11     4    36    1
    12     4    37    1
    13     5    38    1
    14     5    39    1
    15     5    40    1
    16     6     7    2
    17     6     8    2
    18     6     9    1
    19     9    30   ar
    20     9    10   ar
    21    10    11   ar
    22    10    41    1
    23    11    12   ar
    24    11    42    1
    25    12    13    1
    26    12    29   ar
    27    13    14    1
    28    14    15    1
    29    14    43    1
    30    14    44    1
    31    15    16    2
    32    15    17   am
    33    17    18    1
    34    17    45    1
    35    18    19    1
    36    18    46    1
    37    18    47    1
    38    19    28   ar
    39    19    20   ar
    40    20    21   ar
    41    20    48    1
    42    21    22   ar
    43    21    49    1
    44    22    23    1
    45    22    27   ar
    46    23    24    1
    47    23    25    2
    48    23    26    2
    49    24    50    1
    50    24    51    1
    51    27    28   ar
    52    27    52    1
    53    28    53    1
    54    29    30   ar
    55    29    54    1
    56    30    55    1
