@<TRIPOS>MOLECULE
ZINC000003457874
 42 43 0 0 0
SMALL
GASTEIGER

@<TRIPOS>ATOM
      1 C          -0.0360    1.5261    0.0492 C.3     1  UNL1       -0.0507
      2 C          -0.0112   -0.0036    0.0311 C.3     1  UNL1        0.0177
      3 N           0.7107   -0.4943    1.2076 N.3     1  UNL1       -0.1771
      4 C           0.0073   -0.6608    2.4819 C.3     1  UNL1        0.0177
      5 C          -0.6761   -2.0294    2.5123 C.3     1  UNL1       -0.0507
      6 S           2.3218   -0.8609    1.0972 S.O2    1  UNL1        0.0608
      7 O           2.5955   -1.7853    2.1411 O.2     1  UNL1       -0.1528
      8 O           2.5773   -1.1379   -0.2730 O.2     1  UNL1       -0.1528
      9 C           3.2182    0.6060    1.4837 C.ar    1  UNL1        0.1056
     10 C           3.5554    1.4935    0.4784 C.ar    1  UNL1       -0.0336
     11 C           4.2580    2.6442    0.7781 C.ar    1  UNL1       -0.0384
     12 C           4.6253    2.9097    2.0908 C.ar    1  UNL1        0.0364
     13 N           5.3367    4.0748    2.3979 N.am    1  UNL1       -0.2706
     14 C           5.6731    4.5049    3.7601 C.3     1  UNL1        0.0333
     15 C           6.7952    5.5539    3.5959 C.3     1  UNL1        0.0849
     16 H           7.7781    5.0874    3.6624 H       1  UNL1        0.0435
     17 C           6.6551    6.6572    4.6127 C.2     1  UNL1        0.3610
     18 O           7.6460    7.1157    5.1553 O.co2   1  UNL1       -0.2460
     19 O           5.5507    7.0914    4.8929 O.co2   1  UNL1       -0.2460
     20 C           6.5280    6.0802    2.1667 C.3     1  UNL1        0.0390
     21 C           5.8048    4.9410    1.4827 C.2     1  UNL1        0.2206
     22 O           5.6617    4.8293    0.2835 O.2     1  UNL1       -0.2752
     23 C           4.2847    2.0165    3.0982 C.ar    1  UNL1       -0.0384
     24 C           3.5779    0.8700    2.7926 C.ar    1  UNL1       -0.0336
     25 H           0.9855    1.9062    0.0334 H       1  UNL1        0.0243
     26 H          -0.5731    1.8912   -0.8261 H       1  UNL1        0.0243
     27 H          -0.5379    1.8707    0.9533 H       1  UNL1        0.0243
     28 H          -1.0327   -0.3837    0.0469 H       1  UNL1        0.0441
     29 H           0.4907   -0.3482   -0.8730 H       1  UNL1        0.0441
     30 H           0.7213   -0.5929    3.3026 H       1  UNL1        0.0441
     31 H          -0.7433    0.1225    2.5876 H       1  UNL1        0.0441
     32 H          -1.1994   -2.1532    3.4603 H       1  UNL1        0.0243
     33 H          -1.3901   -2.0973    1.6915 H       1  UNL1        0.0243
     34 H           0.0745   -2.8127    2.4066 H       1  UNL1        0.0243
     35 H           3.2695    1.2865   -0.5423 H       1  UNL1        0.0638
     36 H           4.5217    3.3367   -0.0076 H       1  UNL1        0.0637
     37 H           4.8035    4.9546    4.2393 H       1  UNL1        0.0477
     38 H           6.0313    3.6580    4.3454 H       1  UNL1        0.0477
     39 H           5.9005    6.9708    2.1992 H       1  UNL1        0.0367
     40 H           7.4676    6.2928    1.6566 H       1  UNL1        0.0367
     41 H           4.5689    2.2201    4.1200 H       1  UNL1        0.0637
     42 H           3.3127    0.1750    3.5755 H       1  UNL1        0.0638
@<TRIPOS>BOND
     1     1     2    1
     2     1    25    1
     3     1    26    1
     4     1    27    1
     5     2     3    1
     6     2    28    1
     7     2    29    1
     8     3     4    1
     9     6     3    1
    10     4     5    1
    11     4    30    1
    12     4    31    1
    13     5    32    1
    14     5    33    1
    15     5    34    1
    16     6     7    2
    17     6     8    2
    18     6     9    1
    19     9    24   ar
    20     9    10   ar
    21    10    11   ar
    22    10    35    1
    23    11    12   ar
    24    11    36    1
    25    12    13    1
    26    12    23   ar
    27    13    21   am
    28    13    14    1
    29    14    15    1
    30    14    37    1
    31    14    38    1
    32    15    16    1
    33    15    17    1
    34    15    20    1
    35    17    18   ar
    36    17    19   ar
    37    20    21    1
    38    20    39    1
    39    20    40    1
    40    21    22    2
    41    23    24   ar
    42    23    41    1
    43    24    42    1
