@<TRIPOS>MOLECULE
ZINC000072366080
 34 35 0 0 0
SMALL
GASTEIGER

@<TRIPOS>ATOM
      1 C           0.8754    1.2959   -0.4461 C.3     1  UNL1        0.0124
      2 C           0.5467   -0.1662   -0.2875 C.2     1  UNL1        0.2130
      3 O           1.0865   -0.8184    0.5809 O.2     1  UNL1       -0.2759
      4 N          -0.3473   -0.7491   -1.1106 N.am    1  UNL1       -0.2922
      5 C          -0.9400   -0.0032   -2.2311 C.3     1  UNL1        0.0278
      6 C          -2.4638   -0.1495   -2.1615 C.3     1  UNL1        0.0118
      7 N          -2.8138   -1.5753   -2.1102 N.3     1  UNL1       -0.3124
      8 C          -2.2871   -2.2099   -0.8945 C.3     1  UNL1        0.0187
      9 C          -0.7515   -2.1498   -0.9159 C.3     1  UNL1        0.0636
     10 H          -0.3724   -2.7635   -1.7331 H       1  UNL1        0.0563
     11 C          -0.2067   -2.6584    0.3939 C.ar    1  UNL1       -0.0258
     12 C          -0.5528   -2.0317    1.5765 C.ar    1  UNL1       -0.0562
     13 C          -0.0531   -2.4982    2.7779 C.ar    1  UNL1       -0.0498
     14 C           0.7925   -3.5917    2.7969 C.ar    1  UNL1        0.0548
     15 C           1.3377   -4.1000    4.1066 C.3     1  UNL1        0.4174
     16 F           0.4664   -5.0593    4.6336 F       1  UNL1       -0.1659
     17 F           2.5946   -4.6771    3.8960 F       1  UNL1       -0.1659
     18 F           1.4582   -3.0353    5.0062 F       1  UNL1       -0.1659
     19 C           1.1375   -4.2192    1.6145 C.ar    1  UNL1       -0.0498
     20 C           0.6347   -3.7550    0.4134 C.ar    1  UNL1       -0.0562
     21 H           1.9529    1.4158   -0.5593 H       1  UNL1        0.0323
     22 H           0.3715    1.6878   -1.3296 H       1  UNL1        0.0323
     23 H           0.5398    1.8415    0.4357 H       1  UNL1        0.0323
     24 H          -0.6694    1.0499   -2.1539 H       1  UNL1        0.0477
     25 H          -0.5759   -0.4095   -3.1748 H       1  UNL1        0.0477
     26 H          -2.8365    0.3489   -1.2666 H       1  UNL1        0.0439
     27 H          -2.9135    0.3038   -3.0449 H       1  UNL1        0.0439
     28 H          -3.8117   -1.7055   -2.1828 H       1  UNL1        0.1221
     29 H          -2.6623   -1.6827   -0.0173 H       1  UNL1        0.0446
     30 H          -2.6087   -3.2507   -0.8590 H       1  UNL1        0.0446
     31 H          -1.2134   -1.1775    1.5616 H       1  UNL1        0.0621
     32 H          -0.3229   -2.0082    3.7017 H       1  UNL1        0.0623
     33 H           1.7978   -5.0737    1.6293 H       1  UNL1        0.0623
     34 H           0.9043   -4.2453   -0.5104 H       1  UNL1        0.0621
@<TRIPOS>BOND
     1     1     2    1
     2     1    21    1
     3     1    22    1
     4     1    23    1
     5     2     3    2
     6     2     4   am
     7     4     9    1
     8     4     5    1
     9     5     6    1
    10     5    24    1
    11     5    25    1
    12     6     7    1
    13     6    26    1
    14     6    27    1
    15     7     8    1
    16     7    28    1
    17     8     9    1
    18     8    29    1
    19     8    30    1
    20     9    10    1
    21     9    11    1
    22    11    20   ar
    23    11    12   ar
    24    12    13   ar
    25    12    31    1
    26    13    14   ar
    27    13    32    1
    28    14    15    1
    29    14    19   ar
    30    15    16    1
    31    15    17    1
    32    15    18    1
    33    19    20   ar
    34    19    33    1
    35    20    34    1
