@<TRIPOS>MOLECULE
ZINC000226073176
 61 63 0 0 0
SMALL
GASTEIGER

@<TRIPOS>ATOM
      1 C          -0.0187    1.5258    0.0104 C.3     1  UNL1       -0.0507
      2 C           0.0021   -0.0041    0.0020 C.3     1  UNL1        0.0182
      3 N          -1.3723   -0.5112    0.0124 N.3     1  UNL1       -0.1681
      4 C          -2.1099   -0.6542   -1.2453 C.3     1  UNL1        0.0968
      5 C          -1.7778   -1.9829   -1.8740 C.2     1  UNL1        0.2288
      6 O          -1.0015   -2.7362   -1.3256 O.2     1  UNL1       -0.2743
      7 N          -2.3435   -2.3340   -3.0459 N.am    1  UNL1       -0.3139
      8 C          -2.0207   -3.6257   -3.6571 C.3     1  UNL1        0.0156
      9 C          -2.7910   -3.7751   -4.9706 C.3     1  UNL1       -0.0121
     10 C          -2.4589   -5.1038   -5.5994 C.ar    1  UNL1       -0.0458
     11 C          -1.3937   -5.2074   -6.4743 C.ar    1  UNL1       -0.0567
     12 C          -1.0891   -6.4262   -7.0511 C.ar    1  UNL1       -0.0351
     13 C          -1.8495   -7.5414   -6.7525 C.ar    1  UNL1        0.1055
     14 S          -1.4616   -9.0949   -7.4881 S.O2    1  UNL1        0.0609
     15 O          -2.6572   -9.8622   -7.4593 O.2     1  UNL1       -0.1528
     16 O          -0.7521   -8.8061   -8.6850 O.2     1  UNL1       -0.1528
     17 N          -0.3907   -9.8596   -6.4827 N.3     1  UNL1       -0.1766
     18 C           1.0738   -9.7454   -6.5444 C.3     1  UNL1        0.0205
     19 C           1.6509  -10.6497   -5.4350 C.3     1  UNL1       -0.0373
     20 C           0.5019  -11.6599   -5.1772 C.3     1  UNL1       -0.0373
     21 C          -0.7482  -10.7626   -5.3736 C.3     1  UNL1        0.0205
     22 C          -2.9138   -7.4381   -5.8765 C.ar    1  UNL1       -0.0351
     23 C          -3.2160   -6.2201   -5.2968 C.ar    1  UNL1       -0.0567
     24 S          -2.0922   -0.9227    1.4458 S.O2    1  UNL1        0.0613
     25 O          -3.1196   -1.8512    1.1269 O.2     1  UNL1       -0.1528
     26 O          -1.0393   -1.2108    2.3555 O.2     1  UNL1       -0.1528
     27 C          -2.8978    0.5199    2.0580 C.ar    1  UNL1        0.1055
     28 C          -2.2156    1.3954    2.8820 C.ar    1  UNL1       -0.0353
     29 C          -2.8476    2.5271    3.3622 C.ar    1  UNL1       -0.0599
     30 C          -4.1616    2.7836    3.0181 C.ar    1  UNL1       -0.0616
     31 C          -4.8435    1.9086    2.1933 C.ar    1  UNL1       -0.0599
     32 C          -4.2102    0.7790    1.7096 C.ar    1  UNL1       -0.0353
     33 H           1.0039    1.9031    0.0027 H       1  UNL1        0.0243
     34 H          -0.5459    1.8868   -0.8726 H       1  UNL1        0.0243
     35 H          -0.5289    1.8773    0.9072 H       1  UNL1        0.0243
     36 H           0.5123   -0.3556   -0.8948 H       1  UNL1        0.0441
     37 H           0.5293   -0.3651    0.8851 H       1  UNL1        0.0441
     38 H          -3.1804   -0.6037   -1.0465 H       1  UNL1        0.0539
     39 H          -1.8283    0.1500   -1.9251 H       1  UNL1        0.0539
     40 H          -2.9644   -1.7315   -3.4845 H       1  UNL1        0.1487
     41 H          -0.9502   -3.6762   -3.8559 H       1  UNL1        0.0465
     42 H          -2.3023   -4.4299   -2.9773 H       1  UNL1        0.0465
     43 H          -3.8615   -3.7246   -4.7718 H       1  UNL1        0.0328
     44 H          -2.5094   -2.9709   -5.6504 H       1  UNL1        0.0328
     45 H          -0.7997   -4.3362   -6.7075 H       1  UNL1        0.0621
     46 H          -0.2574   -6.5071   -7.7352 H       1  UNL1        0.0637
     47 H           1.4310  -10.0798   -7.5184 H       1  UNL1        0.0444
     48 H           1.3725   -8.7113   -6.3726 H       1  UNL1        0.0444
     49 H           2.5461  -11.1646   -5.7839 H       1  UNL1        0.0278
     50 H           1.8636  -10.0700   -4.5367 H       1  UNL1        0.0278
     51 H           0.5235  -12.4704   -5.9057 H       1  UNL1        0.0278
     52 H           0.5450  -12.0496   -4.1601 H       1  UNL1        0.0278
     53 H          -0.9538  -10.1946   -4.4663 H       1  UNL1        0.0444
     54 H          -1.6117  -11.3693   -5.6462 H       1  UNL1        0.0444
     55 H          -3.5076   -8.3094   -5.6430 H       1  UNL1        0.0637
     56 H          -4.0476   -6.1393   -4.6124 H       1  UNL1        0.0621
     57 H          -1.1890    1.1950    3.1509 H       1  UNL1        0.0637
     58 H          -2.3149    3.2108    4.0066 H       1  UNL1        0.0618
     59 H          -4.6556    3.6674    3.3939 H       1  UNL1        0.0618
     60 H          -5.8703    2.1088    1.9247 H       1  UNL1        0.0618
     61 H          -4.7429    0.0954    1.0653 H       1  UNL1        0.0637
@<TRIPOS>BOND
     1     1     2    1
     2     1    33    1
     3     1    34    1
     4     1    35    1
     5     2     3    1
     6     2    36    1
     7     2    37    1
     8     3     4    1
     9    24     3    1
    10     4     5    1
    11     4    38    1
    12     4    39    1
    13     5     6    2
    14     5     7   am
    15     7     8    1
    16     7    40    1
    17     8     9    1
    18     8    41    1
    19     8    42    1
    20     9    10    1
    21     9    43    1
    22     9    44    1
    23    10    23   ar
    24    10    11   ar
    25    11    12   ar
    26    11    45    1
    27    12    13   ar
    28    12    46    1
    29    13    14    1
    30    13    22   ar
    31    14    15    2
    32    14    16    2
    33    14    17    1
    34    17    21    1
    35    17    18    1
    36    18    19    1
    37    18    47    1
    38    18    48    1
    39    19    20    1
    40    19    49    1
    41    19    50    1
    42    20    21    1
    43    20    51    1
    44    20    52    1
    45    21    53    1
    46    21    54    1
    47    22    23   ar
    48    22    55    1
    49    23    56    1
    50    24    25    2
    51    24    26    2
    52    24    27    1
    53    27    32   ar
    54    27    28   ar
    55    28    29   ar
    56    28    57    1
    57    29    30   ar
    58    29    58    1
    59    30    31   ar
    60    30    59    1
    61    31    32   ar
    62    31    60    1
    63    32    61    1
