@<TRIPOS>MOLECULE
ZINC000013042302
 70 72 0 0 0
SMALL
GASTEIGER

@<TRIPOS>ATOM
      1 C          -0.5448    0.1184    0.2944 C.3     1  UNL1       -0.0613
      2 C           0.1328   -1.2337    0.5259 C.3     1  UNL1       -0.0305
      3 C           0.8315   -1.6681   -0.7368 C.ar    1  UNL1       -0.0474
      4 C           0.1535   -2.4229   -1.6760 C.ar    1  UNL1       -0.0551
      5 C           0.7917   -2.8223   -2.8343 C.ar    1  UNL1       -0.0197
      6 C           2.1140   -2.4651   -3.0548 C.ar    1  UNL1        0.1212
      7 O           2.7439   -2.8564   -4.1936 O.3     1  UNL1       -0.4828
      8 C           4.1052   -2.4523   -4.3537 C.3     1  UNL1        0.1655
      9 C           4.6333   -2.9741   -5.6651 C.2     1  UNL1        0.2549
     10 O           3.9145   -3.6279   -6.3913 O.2     1  UNL1       -0.2717
     11 N           5.9041   -2.7145   -6.0311 N.am    1  UNL1       -0.2811
     12 C           6.4234   -3.2747   -7.2062 C.ar    1  UNL1        0.0566
     13 C           5.6045   -3.4581   -8.3097 C.ar    1  UNL1       -0.0123
     14 C           6.1188   -4.0110   -9.4681 C.ar    1  UNL1        0.1073
     15 S           5.0756   -4.2428  -10.8690 S.O2    1  UNL1        0.0609
     16 O           5.6692   -5.2747  -11.6449 O.2     1  UNL1       -0.1528
     17 O           3.7460   -4.3110  -10.3723 O.2     1  UNL1       -0.1528
     18 N           5.1643   -2.8628  -11.7800 N.3     1  UNL1       -0.1771
     19 C           6.1798   -2.7415  -12.8290 C.3     1  UNL1        0.0177
     20 C           5.5762   -3.1535  -14.1732 C.3     1  UNL1       -0.0507
     21 C           4.2273   -1.7631  -11.5370 C.3     1  UNL1        0.0177
     22 C           4.8699   -0.7448  -10.5931 C.3     1  UNL1       -0.0507
     23 C           7.4490   -4.3819   -9.5305 C.ar    1  UNL1       -0.0335
     24 C           8.2730   -4.2031   -8.4346 C.ar    1  UNL1       -0.0370
     25 C           7.7670   -3.6441   -7.2708 C.ar    1  UNL1        0.0514
     26 N           8.5988   -3.4618   -6.1609 N.pl3   1  UNL1       -0.3260
     27 C          10.0055   -3.7015   -6.5119 C.3     1  UNL1        0.0250
     28 C          10.8882   -3.4152   -5.2948 C.3     1  UNL1        0.0144
     29 N          10.4729   -4.2759   -4.1784 N.3     1  UNL1       -0.3024
     30 C          11.3463   -4.0845   -3.0129 C.3     1  UNL1       -0.0126
     31 C           9.0662   -4.0361   -3.8273 C.3     1  UNL1        0.0144
     32 C           8.1835   -4.3224   -5.0445 C.3     1  UNL1        0.0250
     33 C           2.7920   -1.7073   -2.1110 C.ar    1  UNL1       -0.0197
     34 C           2.1478   -1.3063   -0.9566 C.ar    1  UNL1       -0.0551
     35 H           0.2065    0.8594    0.0216 H       1  UNL1        0.0233
     36 H          -1.2736    0.0264   -0.5109 H       1  UNL1        0.0233
     37 H          -1.0502    0.4326    1.2076 H       1  UNL1        0.0233
     38 H           0.8616   -1.1417    1.3312 H       1  UNL1        0.0311
     39 H          -0.6185   -1.9747    0.7987 H       1  UNL1        0.0311
     40 H          -0.8759   -2.7007   -1.5039 H       1  UNL1        0.0621
     41 H           0.2619   -3.4125   -3.5673 H       1  UNL1        0.0654
     42 H           4.1645   -1.3639   -4.3454 H       1  UNL1        0.0795
     43 H           4.7024   -2.8549   -3.5355 H       1  UNL1        0.0795
     44 H           6.4594   -2.1399   -5.4812 H       1  UNL1        0.1550
     45 H           4.5648   -3.1694   -8.2645 H       1  UNL1        0.0656
     46 H           6.5220   -1.7082  -12.8857 H       1  UNL1        0.0441
     47 H           7.0232   -3.3912  -12.5950 H       1  UNL1        0.0441
     48 H           4.7329   -2.5038  -14.4071 H       1  UNL1        0.0243
     49 H           6.3318   -3.0633  -14.9536 H       1  UNL1        0.0243
     50 H           5.2341   -4.1868  -14.1164 H       1  UNL1        0.0243
     51 H           3.9827   -1.2786  -12.4822 H       1  UNL1        0.0441
     52 H           3.3170   -2.1550  -11.0833 H       1  UNL1        0.0441
     53 H           5.7802   -0.3528  -11.0468 H       1  UNL1        0.0243
     54 H           4.1727    0.0734  -10.4123 H       1  UNL1        0.0243
     55 H           5.1145   -1.2293   -9.6479 H       1  UNL1        0.0243
     56 H           7.8458   -4.8130  -10.4378 H       1  UNL1        0.0638
     57 H           9.3117   -4.4944   -8.4867 H       1  UNL1        0.0637
     58 H          10.1323   -4.7403   -6.8167 H       1  UNL1        0.0476
     59 H          10.2928   -3.0438   -7.3323 H       1  UNL1        0.0476
     60 H          11.9293   -3.6203   -5.5443 H       1  UNL1        0.0442
     61 H          10.7822   -2.3694   -5.0066 H       1  UNL1        0.0442
     62 H          11.2978   -3.0447   -2.6894 H       1  UNL1        0.0391
     63 H          11.0167   -4.7332   -2.2014 H       1  UNL1        0.0391
     64 H          12.3726   -4.3334   -3.2831 H       1  UNL1        0.0391
     65 H           8.7789   -4.6938   -3.0070 H       1  UNL1        0.0442
     66 H           8.9394   -2.9973   -3.5225 H       1  UNL1        0.0442
     67 H           7.1424   -4.1174   -4.7950 H       1  UNL1        0.0476
     68 H           8.2895   -5.3683   -5.3326 H       1  UNL1        0.0476
     69 H           3.8215   -1.4282   -2.2802 H       1  UNL1        0.0654
     70 H           2.6750   -0.7160   -0.2217 H       1  UNL1        0.0621
@<TRIPOS>BOND
     1     1     2    1
     2     1    35    1
     3     1    36    1
     4     1    37    1
     5     2     3    1
     6     2    38    1
     7     2    39    1
     8     3    34   ar
     9     3     4   ar
    10     4     5   ar
    11     4    40    1
    12     5     6   ar
    13     5    41    1
    14     6     7    1
    15     6    33   ar
    16     7     8    1
    17     8     9    1
    18     8    42    1
    19     8    43    1
    20     9    10    2
    21     9    11   am
    22    11    12    1
    23    11    44    1
    24    12    25   ar
    25    12    13   ar
    26    13    14   ar
    27    13    45    1
    28    14    15    1
    29    14    23   ar
    30    15    16    2
    31    15    17    2
    32    15    18    1
    33    18    19    1
    34    18    21    1
    35    19    20    1
    36    19    46    1
    37    19    47    1
    38    20    48    1
    39    20    49    1
    40    20    50    1
    41    21    22    1
    42    21    51    1
    43    21    52    1
    44    22    53    1
    45    22    54    1
    46    22    55    1
    47    23    24   ar
    48    23    56    1
    49    24    25   ar
    50    24    57    1
    51    25    26    1
    52    26    32    1
    53    26    27    1
    54    27    28    1
    55    27    58    1
    56    27    59    1
    57    28    29    1
    58    28    60    1
    59    28    61    1
    60    29    30    1
    61    29    31    1
    62    30    62    1
    63    30    63    1
    64    30    64    1
    65    31    32    1
    66    31    65    1
    67    31    66    1
    68    32    67    1
    69    32    68    1
    70    33    34   ar
    71    33    69    1
    72    34    70    1
