@<TRIPOS>MOLECULE
ZINC000584887900
 40 40 0 0 0
SMALL
GASTEIGER

@<TRIPOS>ATOM
      1 C           0.2967    1.4251   -0.1031 C.3     1  UNL1       -0.0625
      2 C          -0.0660   -0.0613   -0.0983 C.3     1  UNL1       -0.0209
      3 C          -1.4588   -0.2445    0.5078 C.3     1  UNL1        0.1339
      4 H          -1.4888    0.2162    1.4952 H       1  UNL1        0.0693
      5 O          -2.4310    0.3751   -0.3367 O.3     1  UNL1       -0.3706
      6 C          -2.8320    1.6765    0.0963 C.3     1  UNL1        0.0374
      7 C          -1.7639   -1.7152    0.6301 C.2     1  UNL1        0.2445
      8 O          -2.5932   -2.2247   -0.0935 O.2     1  UNL1       -0.2728
      9 N          -1.1152   -2.4643    1.5436 N.am    1  UNL1       -0.2966
     10 C          -0.1923   -1.8306    2.4886 C.3     1  UNL1        0.0036
     11 C          -1.3330   -3.9122    1.5916 C.3     1  UNL1        0.0566
     12 C          -0.3385   -4.5998    0.6920 C.ar    1  UNL1        0.0591
     13 C           0.8365   -5.0945    1.2251 C.ar    1  UNL1       -0.0359
     14 C           1.7448   -5.7260    0.3889 C.ar    1  UNL1       -0.0470
     15 C           3.0372   -6.2794    0.9314 C.3     1  UNL1       -0.0396
     16 C           1.4354   -5.8364   -0.9579 C.ar    1  UNL1       -0.0377
     17 C           0.2403   -5.3171   -1.4192 C.ar    1  UNL1        0.0388
     18 C          -0.1067   -5.4319   -2.8812 C.3     1  UNL1       -0.0223
     19 N          -0.6021   -4.7273   -0.5939 N.ar    1  UNL1       -0.2552
     20 H           1.2980    1.5535   -0.5141 H       1  UNL1        0.0231
     21 H          -0.4203    1.9721   -0.7153 H       1  UNL1        0.0231
     22 H           0.2707    1.8087    0.9169 H       1  UNL1        0.0231
     23 H          -0.0619   -0.4395   -1.1206 H       1  UNL1        0.0292
     24 H           0.6639   -0.6115    0.4955 H       1  UNL1        0.0292
     25 H          -3.1990    1.6214    1.1212 H       1  UNL1        0.0524
     26 H          -1.9787    2.3532    0.0518 H       1  UNL1        0.0524
     27 H          -3.6243    2.0476   -0.5538 H       1  UNL1        0.0524
     28 H          -0.7432   -1.5034    3.3704 H       1  UNL1        0.0429
     29 H           0.5739   -2.5473    2.7841 H       1  UNL1        0.0429
     30 H           0.2789   -0.9697    2.0144 H       1  UNL1        0.0429
     31 H          -1.2026   -4.2655    2.6145 H       1  UNL1        0.0529
     32 H          -2.3446   -4.1388    1.2550 H       1  UNL1        0.0529
     33 H           1.0450   -4.9904    2.2797 H       1  UNL1        0.0639
     34 H           2.8878   -7.3136    1.2416 H       1  UNL1        0.0278
     35 H           3.8031   -6.2395    0.1568 H       1  UNL1        0.0278
     36 H           3.3556   -5.6855    1.7881 H       1  UNL1        0.0278
     37 H           2.1196   -6.3217   -1.6382 H       1  UNL1        0.0638
     38 H          -0.6512   -6.3602   -3.0536 H       1  UNL1        0.0292
     39 H          -0.7285   -4.5861   -3.1746 H       1  UNL1        0.0292
     40 H           0.8087   -5.4323   -3.4730 H       1  UNL1        0.0292
@<TRIPOS>BOND
     1     1     2    1
     2     1    20    1
     3     1    21    1
     4     1    22    1
     5     2     3    1
     6     2    23    1
     7     2    24    1
     8     3     4    1
     9     3     5    1
    10     3     7    1
    11     5     6    1
    12     6    25    1
    13     6    26    1
    14     6    27    1
    15     7     8    2
    16     7     9   am
    17     9    10    1
    18     9    11    1
    19    10    28    1
    20    10    29    1
    21    10    30    1
    22    11    12    1
    23    11    31    1
    24    11    32    1
    25    12    19   ar
    26    12    13   ar
    27    13    14   ar
    28    13    33    1
    29    14    15    1
    30    14    16   ar
    31    15    34    1
    32    15    35    1
    33    15    36    1
    34    16    17   ar
    35    16    37    1
    36    17    18    1
    37    17    19   ar
    38    18    38    1
    39    18    39    1
    40    18    40    1
