@<TRIPOS>MOLECULE
ZINC000009217098
 47 49 0 0 0
SMALL
GASTEIGER

@<TRIPOS>ATOM
      1 C           0.0244    1.5110   -0.0021 C.3     1  UNL1       -0.0397
      2 C           0.0354    0.0041   -0.0068 C.ar    1  UNL1       -0.0503
      3 C           0.0313   -0.6834   -1.2061 C.ar    1  UNL1       -0.0570
      4 C           0.0414   -2.0657   -1.2105 C.ar    1  UNL1       -0.0351
      5 C           0.0561   -2.7605   -0.0156 C.ar    1  UNL1        0.1055
      6 S           0.0684   -4.5225   -0.0211 S.O2    1  UNL1        0.0615
      7 O          -0.4629   -4.9314    1.2318 O.2     1  UNL1       -0.1528
      8 O          -0.4836   -4.9237   -1.2676 O.2     1  UNL1       -0.1528
      9 N           1.6535   -5.0016   -0.0357 N.3     1  UNL1       -0.1647
     10 C           2.4678   -5.2403   -1.2412 C.3     1  UNL1        0.0214
     11 C           3.9323   -5.0455   -0.7754 C.3     1  UNL1       -0.0366
     12 C           3.8883   -5.6515    0.6523 C.3     1  UNL1       -0.0260
     13 C           2.4835   -5.2532    1.1514 C.3     1  UNL1        0.1081
     14 H           2.5486   -4.3526    1.7619 H       1  UNL1        0.0576
     15 C           1.8886   -6.3778    1.9591 C.2     1  UNL1        0.2361
     16 O           0.8624   -6.9106    1.5929 O.2     1  UNL1       -0.2737
     17 N           2.4970   -6.7916    3.0883 N.am    1  UNL1       -0.2842
     18 C           1.8955   -7.7685    3.8894 C.ar    1  UNL1        0.0335
     19 C           2.0220   -7.7100    5.2712 C.ar    1  UNL1       -0.0399
     20 C           1.4271   -8.6758    6.0591 C.ar    1  UNL1       -0.0484
     21 C           0.7065   -9.7005    5.4735 C.ar    1  UNL1        0.0549
     22 C           0.0592  -10.7530    6.3363 C.3     1  UNL1        0.4174
     23 F          -1.2369  -10.3477    6.6726 F       1  UNL1       -0.1659
     24 F           0.0024  -11.9615    5.6340 F       1  UNL1       -0.1659
     25 F           0.8111  -10.9266    7.5032 F       1  UNL1       -0.1659
     26 C           0.5783   -9.7614    4.0980 C.ar    1  UNL1       -0.0484
     27 C           1.1660   -8.7954    3.3048 C.ar    1  UNL1       -0.0399
     28 C           0.0616   -2.0731    1.1837 C.ar    1  UNL1       -0.0351
     29 C           0.0554   -0.6908    1.1880 C.ar    1  UNL1       -0.0570
     30 H           1.0493    1.8819   -0.0137 H       1  UNL1        0.0278
     31 H          -0.5031    1.8733   -0.8845 H       1  UNL1        0.0278
     32 H          -0.4809    1.8678    0.8953 H       1  UNL1        0.0278
     33 H           0.0198   -0.1405   -2.1397 H       1  UNL1        0.0621
     34 H           0.0374   -2.6028   -2.1475 H       1  UNL1        0.0637
     35 H           2.3176   -6.2566   -1.6054 H       1  UNL1        0.0444
     36 H           2.2173   -4.5173   -2.0175 H       1  UNL1        0.0444
     37 H           4.6220   -5.5982   -1.4133 H       1  UNL1        0.0279
     38 H           4.1947   -3.9880   -0.7431 H       1  UNL1        0.0279
     39 H           3.9952   -6.7356    0.6145 H       1  UNL1        0.0286
     40 H           4.6591   -5.2087    1.2831 H       1  UNL1        0.0286
     41 H           3.3518   -6.4122    3.3457 H       1  UNL1        0.1549
     42 H           2.5852   -6.9103    5.7290 H       1  UNL1        0.0636
     43 H           1.5251   -8.6309    7.1337 H       1  UNL1        0.0624
     44 H           0.0149  -10.5629    3.6437 H       1  UNL1        0.0624
     45 H           1.0655   -8.8435    2.2306 H       1  UNL1        0.0636
     46 H           0.0735   -2.6160    2.1173 H       1  UNL1        0.0637
     47 H           0.0597   -0.1537    2.1250 H       1  UNL1        0.0621
@<TRIPOS>BOND
     1     1     2    1
     2     1    30    1
     3     1    31    1
     4     1    32    1
     5     2    29   ar
     6     2     3   ar
     7     3     4   ar
     8     3    33    1
     9     4     5   ar
    10     4    34    1
    11     5     6    1
    12     5    28   ar
    13     6     7    2
    14     6     8    2
    15     6     9    1
    16     9    13    1
    17     9    10    1
    18    10    11    1
    19    10    35    1
    20    10    36    1
    21    11    12    1
    22    11    37    1
    23    11    38    1
    24    12    13    1
    25    12    39    1
    26    12    40    1
    27    13    14    1
    28    13    15    1
    29    15    16    2
    30    15    17   am
    31    17    18    1
    32    17    41    1
    33    18    27   ar
    34    18    19   ar
    35    19    20   ar
    36    19    42    1
    37    20    21   ar
    38    20    43    1
    39    21    22    1
    40    21    26   ar
    41    22    23    1
    42    22    24    1
    43    22    25    1
    44    26    27   ar
    45    26    44    1
    46    27    45    1
    47    28    29   ar
    48    28    46    1
    49    29    47    1
