@<TRIPOS>MOLECULE
ZINC000089929849
 40 41 0 0 0
SMALL
GASTEIGER

@<TRIPOS>ATOM
      1 C           0.1152    1.5498    0.2708 C.3     1  UNL1       -0.0609
      2 C           0.0757    0.0210    0.2279 C.3     1  UNL1       -0.0244
      3 H          -0.9491   -0.3207    0.3739 H       1  UNL1        0.0314
      4 C           0.5877   -0.4654   -1.1298 C.3     1  UNL1       -0.0477
      5 C           0.5177   -1.9932   -1.1858 C.3     1  UNL1       -0.0383
      6 C           1.4141   -2.5819   -0.0919 C.3     1  UNL1        0.0209
      7 N           1.0211   -2.0069    1.2018 N.3     1  UNL1       -0.1710
      8 S           0.6468   -2.9879    2.4823 S.O2    1  UNL1        0.0639
      9 O          -0.2928   -2.2737    3.2737 O.2     1  UNL1       -0.1527
     10 O           0.3864   -4.2749    1.9392 O.2     1  UNL1       -0.1527
     11 C           2.1032   -3.1464    3.4612 C.ar    1  UNL1        0.1410
     12 C           2.1288   -2.6448    4.7485 C.ar    1  UNL1       -0.0209
     13 C           3.2716   -2.7690    5.5168 C.ar    1  UNL1        0.0568
     14 C           3.2982   -2.2216    6.9206 C.3     1  UNL1        0.4175
     15 F           2.8717   -3.2095    7.8146 F       1  UNL1       -0.1659
     16 F           4.6020   -1.8312    7.2443 F       1  UNL1       -0.1659
     17 F           2.4455   -1.1157    7.0062 F       1  UNL1       -0.1659
     18 C           4.3895   -3.3953    4.9985 C.ar    1  UNL1       -0.0473
     19 C           4.3664   -3.8973    3.7110 C.ar    1  UNL1       -0.0240
     20 C           3.2209   -3.7786    2.9427 C.ar    1  UNL1        0.1496
     21 F           3.1972   -4.2690    1.6841 F       1  UNL1       -0.2034
     22 C           0.9664   -0.5449    1.3384 C.3     1  UNL1        0.0575
     23 H           1.9707   -0.1315    1.2465 H       1  UNL1        0.0505
     24 C           0.3842   -0.1789    2.7051 C.3     1  UNL1        0.0616
     25 O           1.2542   -0.6515    3.7356 O.3     1  UNL1       -0.3934
     26 H           1.1401    1.8910    0.1248 H       1  UNL1        0.0233
     27 H          -0.5178    1.9520   -0.5202 H       1  UNL1        0.0233
     28 H          -0.2485    1.8957    1.2384 H       1  UNL1        0.0233
     29 H          -0.0300   -0.0442   -1.9229 H       1  UNL1        0.0269
     30 H           1.6205   -0.1440   -1.2647 H       1  UNL1        0.0269
     31 H          -0.5110   -2.3163   -1.0263 H       1  UNL1        0.0278
     32 H           0.8605   -2.3375   -2.1615 H       1  UNL1        0.0278
     33 H           1.2919   -3.6646   -0.0628 H       1  UNL1        0.0444
     34 H           2.4551   -2.3350   -0.3004 H       1  UNL1        0.0444
     35 H           1.2559   -2.1553    5.1545 H       1  UNL1        0.0643
     36 H           5.2815   -3.4920    5.5997 H       1  UNL1        0.0624
     37 H           5.2402   -4.3860    3.3060 H       1  UNL1        0.0647
     38 H           0.2866    0.9041    2.7803 H       1  UNL1        0.0573
     39 H          -0.5967   -0.6408    2.8177 H       1  UNL1        0.0573
     40 H           0.9469   -0.4541    4.6310 H       1  UNL1        0.2095
@<TRIPOS>BOND
     1     1     2    1
     2     1    26    1
     3     1    27    1
     4     1    28    1
     5     2     3    1
     6     2    22    1
     7     2     4    1
     8     4     5    1
     9     4    29    1
    10     4    30    1
    11     5     6    1
    12     5    31    1
    13     5    32    1
    14     6     7    1
    15     6    33    1
    16     6    34    1
    17     8     7    1
    18     7    22    1
    19     8     9    2
    20     8    10    2
    21     8    11    1
    22    11    20   ar
    23    11    12   ar
    24    12    13   ar
    25    12    35    1
    26    13    14    1
    27    13    18   ar
    28    14    15    1
    29    14    16    1
    30    14    17    1
    31    18    19   ar
    32    18    36    1
    33    19    20   ar
    34    19    37    1
    35    20    21    1
    36    22    23    1
    37    22    24    1
    38    24    25    1
    39    24    38    1
    40    24    39    1
    41    25    40    1
