@<TRIPOS>MOLECULE
ZINC000012917005
 63 66 0 0 0
SMALL
GASTEIGER

@<TRIPOS>ATOM
      1 O          -0.1121   -0.1731   -0.0685 O.2     1  UNL1       -0.1528
      2 S          -0.1473    1.2463   -0.1254 S.O2    1  UNL1        0.0609
      3 O           1.0219    2.0503   -0.2006 O.2     1  UNL1       -0.1528
      4 C          -1.1292    1.6637   -1.5277 C.ar    1  UNL1        0.1055
      5 C          -2.0615    0.7647   -2.0110 C.ar    1  UNL1       -0.0348
      6 C          -2.8318    1.0922   -3.1111 C.ar    1  UNL1       -0.0483
      7 C          -2.6702    2.3189   -3.7276 C.ar    1  UNL1        0.0549
      8 C          -3.5096    2.6757   -4.9272 C.3     1  UNL1        0.4174
      9 F          -4.6844    3.3062   -4.5034 F       1  UNL1       -0.1659
     10 F          -2.7903    3.5404   -5.7592 F       1  UNL1       -0.1659
     11 F          -3.8334    1.5118   -5.6327 F       1  UNL1       -0.1659
     12 C          -1.7389    3.2184   -3.2434 C.ar    1  UNL1       -0.0483
     13 C          -0.9712    2.8924   -2.1410 C.ar    1  UNL1       -0.0348
     14 N          -0.9742    1.7478    1.2188 N.3     1  UNL1       -0.1741
     15 C          -0.7830    3.1015    1.7613 C.3     1  UNL1        0.0333
     16 C          -2.1585    3.7518    1.9433 C.3     1  UNL1        0.0135
     17 N          -3.0092    2.8716    2.7555 N.3     1  UNL1       -0.2973
     18 C          -4.2757    3.5325    3.0976 C.3     1  UNL1        0.0272
     19 C          -5.0222    2.6966    4.1391 C.3     1  UNL1        0.0911
     20 H          -5.1492    1.6803    3.7661 H       1  UNL1        0.0629
     21 O          -4.2706    2.6676    5.3542 O.3     1  UNL1       -0.3882
     22 C          -6.3950    3.3182    4.4033 C.3     1  UNL1        0.0756
     23 O          -7.1374    2.4756    5.2869 O.3     1  UNL1       -0.3694
     24 C          -8.4003    3.0157    5.6810 C.3     1  UNL1        0.0840
     25 H          -8.8037    3.6173    4.8664 H       1  UNL1        0.0646
     26 C          -8.2083    3.8990    6.9121 C.3     1  UNL1       -0.0221
     27 C          -9.5906    4.2913    7.4469 C.3     1  UNL1       -0.0464
     28 C         -10.2476    3.0479    8.0426 C.3     1  UNL1       -0.0272
     29 C         -10.2056    1.9055    7.0617 C.ar    1  UNL1       -0.0417
     30 C         -11.0701    0.8395    7.2732 C.ar    1  UNL1       -0.0582
     31 C         -11.0759   -0.2396    6.4134 C.ar    1  UNL1       -0.0615
     32 C         -10.2141   -0.2611    5.3330 C.ar    1  UNL1       -0.0614
     33 C          -9.3561    0.7982    5.1198 C.ar    1  UNL1       -0.0559
     34 C          -9.3510    1.8869    5.9827 C.ar    1  UNL1       -0.0157
     35 C          -3.2501    1.5904    2.0784 C.3     1  UNL1        0.0135
     36 C          -1.9238    0.8536    1.8983 C.3     1  UNL1        0.0333
     37 H          -2.1877   -0.1936   -1.5294 H       1  UNL1        0.0637
     38 H          -3.5596    0.3896   -3.4892 H       1  UNL1        0.0624
     39 H          -1.6129    4.1769   -3.7249 H       1  UNL1        0.0624
     40 H          -0.2436    3.5952   -1.7627 H       1  UNL1        0.0637
     41 H          -0.2759    3.0417    2.7244 H       1  UNL1        0.0456
     42 H          -0.1871    3.6935    1.0667 H       1  UNL1        0.0456
     43 H          -2.0433    4.7118    2.4466 H       1  UNL1        0.0440
     44 H          -2.6203    3.9051    0.9679 H       1  UNL1        0.0440
     45 H          -4.0704    4.5223    3.5054 H       1  UNL1        0.0453
     46 H          -4.8889    3.6288    2.2016 H       1  UNL1        0.0453
     47 H          -4.1188    3.5395    5.7437 H       1  UNL1        0.2099
     48 H          -6.2676    4.3001    4.8591 H       1  UNL1        0.0586
     49 H          -6.9342    3.4219    3.4617 H       1  UNL1        0.0586
     50 H          -7.6615    3.3481    7.6774 H       1  UNL1        0.0294
     51 H          -7.6529    4.7957    6.6374 H       1  UNL1        0.0294
     52 H          -9.4829    5.0546    8.2176 H       1  UNL1        0.0269
     53 H         -10.2039    4.6758    6.6319 H       1  UNL1        0.0269
     54 H          -9.7174    2.7614    8.9509 H       1  UNL1        0.0313
     55 H         -11.2854    3.2726    8.2886 H       1  UNL1        0.0313
     56 H         -11.7430    0.8552    8.1177 H       1  UNL1        0.0620
     57 H         -11.7513   -1.0649    6.5843 H       1  UNL1        0.0618
     58 H         -10.2121   -1.1043    4.6582 H       1  UNL1        0.0618
     59 H          -8.6826    0.7804    4.2757 H       1  UNL1        0.0621
     60 H          -3.9265    0.9828    2.6796 H       1  UNL1        0.0440
     61 H          -3.6966    1.7738    1.1011 H       1  UNL1        0.0440
     62 H          -2.0810   -0.0416    1.2966 H       1  UNL1        0.0456
     63 H          -1.5233    0.5769    2.8736 H       1  UNL1        0.0456
@<TRIPOS>BOND
     1     1     2    2
     2     2     3    2
     3     2     4    1
     4     2    14    1
     5     4    13   ar
     6     4     5   ar
     7     5     6   ar
     8     5    37    1
     9     6     7   ar
    10     6    38    1
    11     7     8    1
    12     7    12   ar
    13     8     9    1
    14     8    10    1
    15     8    11    1
    16    12    13   ar
    17    12    39    1
    18    13    40    1
    19    14    36    1
    20    14    15    1
    21    15    16    1
    22    15    41    1
    23    15    42    1
    24    16    17    1
    25    16    43    1
    26    16    44    1
    27    17    18    1
    28    17    35    1
    29    18    19    1
    30    18    45    1
    31    18    46    1
    32    19    20    1
    33    19    21    1
    34    19    22    1
    35    21    47    1
    36    22    23    1
    37    22    48    1
    38    22    49    1
    39    23    24    1
    40    24    25    1
    41    24    34    1
    42    24    26    1
    43    26    27    1
    44    26    50    1
    45    26    51    1
    46    27    28    1
    47    27    52    1
    48    27    53    1
    49    28    29    1
    50    28    54    1
    51    28    55    1
    52    29    34   ar
    53    29    30   ar
    54    30    31   ar
    55    30    56    1
    56    31    32   ar
    57    31    57    1
    58    32    33   ar
    59    32    58    1
    60    33    34   ar
    61    33    59    1
    62    35    36    1
    63    35    60    1
    64    35    61    1
    65    36    62    1
    66    36    63    1
