@<TRIPOS>MOLECULE
ZINC000217632492
 44 46 0 0 0
SMALL
GASTEIGER

@<TRIPOS>ATOM
      1 C          -0.0176    1.4478    0.0100 C.3     1  UNL1        0.0820
      2 O           0.0021   -0.0041    0.0020 O.3     1  UNL1       -0.4645
      3 C           0.6005   -0.6018   -1.0464 C.2     1  UNL1        0.3389
      4 O           1.0924    0.0714   -1.9298 O.2     1  UNL1       -0.2450
      5 C           0.6585   -2.0760   -1.1219 C.ar    1  UNL1        0.0591
      6 C           0.0891   -2.8529   -0.1110 C.ar    1  UNL1       -0.0459
      7 C           0.1469   -4.2290   -0.1877 C.ar    1  UNL1       -0.0346
      8 C           0.7674   -4.8396   -1.2632 C.ar    1  UNL1        0.1056
      9 S           0.8361   -6.5980   -1.3534 S.O2    1  UNL1        0.0621
     10 O           1.9426   -6.9141   -2.1871 O.2     1  UNL1       -0.1528
     11 O           0.7063   -7.0735   -0.0207 O.2     1  UNL1       -0.1528
     12 N          -0.5181   -7.1006   -2.1632 N.3     1  UNL1       -0.1585
     13 C          -1.7716   -7.4117   -1.4795 C.3     1  UNL1        0.0311
     14 C          -2.9683   -7.0926   -2.4182 C.3     1  UNL1        0.0100
     15 S          -2.2868   -7.7111   -4.0144 S.3     1  UNL1       -0.1342
     16 C          -0.5508   -7.2613   -3.6247 C.3     1  UNL1        0.1023
     17 H          -0.2811   -6.3281   -4.1192 H       1  UNL1        0.0644
     18 C           0.3838   -8.3657   -4.0465 C.ar    1  UNL1       -0.0188
     19 C           0.6732   -9.3974   -3.1731 C.ar    1  UNL1       -0.0557
     20 C           1.5305  -10.4104   -3.5600 C.ar    1  UNL1       -0.0498
     21 C           2.0979  -10.3920   -4.8204 C.ar    1  UNL1        0.0548
     22 C           3.0329  -11.4962   -5.2420 C.3     1  UNL1        0.4174
     23 F           2.2991  -12.5245   -5.8432 F       1  UNL1       -0.1659
     24 F           3.9661  -10.9938   -6.1553 F       1  UNL1       -0.1659
     25 F           3.7015  -11.9953   -4.1191 F       1  UNL1       -0.1659
     26 C           1.8074   -9.3610   -5.6942 C.ar    1  UNL1       -0.0498
     27 C           0.9471   -8.3500   -5.3087 C.ar    1  UNL1       -0.0557
     28 C           1.3337   -4.0758   -2.2684 C.ar    1  UNL1       -0.0346
     29 C           1.2780   -2.6989   -2.2072 C.ar    1  UNL1       -0.0459
     30 H           1.0050    1.8251    0.0023 H       1  UNL1        0.0661
     31 H          -0.5448    1.8089   -0.8731 H       1  UNL1        0.0661
     32 H          -0.5278    1.7993    0.9068 H       1  UNL1        0.0661
     33 H          -0.3952   -2.3775    0.7291 H       1  UNL1        0.0626
     34 H          -0.2928   -4.8311    0.5936 H       1  UNL1        0.0637
     35 H          -1.7888   -8.4691   -1.2156 H       1  UNL1        0.0452
     36 H          -1.8502   -6.8106   -0.5736 H       1  UNL1        0.0452
     37 H          -3.8603   -7.6468   -2.1263 H       1  UNL1        0.0390
     38 H          -3.1655   -6.0213   -2.4595 H       1  UNL1        0.0390
     39 H           0.2299   -9.4118   -2.1884 H       1  UNL1        0.0621
     40 H           1.7572  -11.2161   -2.8775 H       1  UNL1        0.0623
     41 H           2.2505   -9.3468   -6.6791 H       1  UNL1        0.0623
     42 H           0.7201   -7.5445   -5.9914 H       1  UNL1        0.0621
     43 H           1.8165   -4.5589   -3.1051 H       1  UNL1        0.0637
     44 H           1.7205   -2.1038   -2.9924 H       1  UNL1        0.0626
@<TRIPOS>BOND
     1     1     2    1
     2     1    30    1
     3     1    31    1
     4     1    32    1
     5     2     3    1
     6     3     4    2
     7     3     5    1
     8     5    29   ar
     9     5     6   ar
    10     6     7   ar
    11     6    33    1
    12     7     8   ar
    13     7    34    1
    14     8     9    1
    15     8    28   ar
    16     9    10    2
    17     9    11    2
    18     9    12    1
    19    12    16    1
    20    12    13    1
    21    13    14    1
    22    13    35    1
    23    13    36    1
    24    14    15    1
    25    14    37    1
    26    14    38    1
    27    15    16    1
    28    16    17    1
    29    16    18    1
    30    18    27   ar
    31    18    19   ar
    32    19    20   ar
    33    19    39    1
    34    20    21   ar
    35    20    40    1
    36    21    22    1
    37    21    26   ar
    38    22    23    1
    39    22    24    1
    40    22    25    1
    41    26    27   ar
    42    26    41    1
    43    27    42    1
    44    28    29   ar
    45    28    43    1
    46    29    44    1
