@<TRIPOS>MOLECULE
ZINC000058331448
 47 49 0 0 0
SMALL
GASTEIGER

@<TRIPOS>ATOM
      1 C           0.5791   -3.2784    1.5483 C.3     1  UNL1       -0.0242
      2 C           0.2678   -2.0915    0.6735 C.ar    1  UNL1        0.0162
      3 C           0.2767   -2.0793   -0.6750 C.ar    1  UNL1       -0.0410
      4 C          -0.0705   -0.7775   -1.0872 C.ar    1  UNL1       -0.0410
      5 C          -0.2783   -0.0439    0.0250 C.ar    1  UNL1        0.0162
      6 C          -0.6715    1.4104    0.0633 C.3     1  UNL1       -0.0242
      7 N          -0.0771   -0.8463    1.1088 N.ar    1  UNL1       -0.3451
      8 C          -0.2021   -0.4360    2.5096 C.3     1  UNL1        0.0369
      9 C           0.8961    0.5759    2.8444 C.3     1  UNL1       -0.0176
     10 C           0.7836    0.9764    4.3187 C.3     1  UNL1        0.0224
     11 N          -0.5803    1.4591    4.5749 N.3     1  UNL1       -0.1764
     12 S          -0.8344    2.9424    5.2660 S.O2    1  UNL1        0.0609
     13 O          -2.1186    2.8880    5.8720 O.2     1  UNL1       -0.1528
     14 O           0.3506    3.2593    5.9832 O.2     1  UNL1       -0.1528
     15 C          -0.9517    4.1150    3.9560 C.ar    1  UNL1        0.1055
     16 C           0.1857    4.7486    3.4917 C.ar    1  UNL1       -0.0348
     17 C           0.0937    5.6685    2.4640 C.ar    1  UNL1       -0.0483
     18 C          -1.1357    5.9545    1.9003 C.ar    1  UNL1        0.0549
     19 C          -1.2360    6.9577    0.7803 C.3     1  UNL1        0.4174
     20 F          -1.0879    6.3028   -0.4470 F       1  UNL1       -0.1659
     21 F          -2.4858    7.5847    0.8264 F       1  UNL1       -0.1659
     22 F          -0.2276    7.9170    0.9217 F       1  UNL1       -0.1659
     23 C          -2.2729    5.3199    2.3638 C.ar    1  UNL1       -0.0483
     24 C          -2.1804    4.3971    3.3889 C.ar    1  UNL1       -0.0348
     25 C          -1.7144    0.6011    4.2058 C.3     1  UNL1        0.0224
     26 C          -1.5739    0.2048    2.7327 C.3     1  UNL1       -0.0176
     27 H          -0.3485   -3.7810    1.8223 H       1  UNL1        0.0292
     28 H           1.2212   -3.9717    1.0050 H       1  UNL1        0.0292
     29 H           1.0897   -2.9410    2.4502 H       1  UNL1        0.0292
     30 H           0.5075   -2.9140   -1.3203 H       1  UNL1        0.0635
     31 H          -0.1548   -0.4310   -2.1066 H       1  UNL1        0.0635
     32 H          -1.7540    1.4917    0.1612 H       1  UNL1        0.0292
     33 H          -0.1924    1.8940    0.9146 H       1  UNL1        0.0292
     34 H          -0.3524    1.8975   -0.8581 H       1  UNL1        0.0292
     35 H          -0.0999   -1.3090    3.1541 H       1  UNL1        0.0528
     36 H           1.8724    0.1266    2.6629 H       1  UNL1        0.0298
     37 H           0.7797    1.4599    2.2174 H       1  UNL1        0.0298
     38 H           0.9894    0.1113    4.9491 H       1  UNL1        0.0444
     39 H           1.4989    1.7692    4.5377 H       1  UNL1        0.0444
     40 H           1.1462    4.5251    3.9320 H       1  UNL1        0.0637
     41 H           0.9823    6.1640    2.1016 H       1  UNL1        0.0624
     42 H          -3.2334    5.5430    1.9232 H       1  UNL1        0.0624
     43 H          -3.0689    3.9013    3.7510 H       1  UNL1        0.0637
     44 H          -1.7122   -0.2946    4.8269 H       1  UNL1        0.0444
     45 H          -2.6472    1.1461    4.3502 H       1  UNL1        0.0444
     46 H          -1.6670    1.0922    2.1067 H       1  UNL1        0.0298
     47 H          -2.3555   -0.5087    2.4717 H       1  UNL1        0.0298
@<TRIPOS>BOND
     1     1     2    1
     2     1    27    1
     3     1    28    1
     4     1    29    1
     5     2     7   ar
     6     2     3   ar
     7     3     4   ar
     8     3    30    1
     9     4     5   ar
    10     4    31    1
    11     5     6    1
    12     5     7   ar
    13     6    32    1
    14     6    33    1
    15     6    34    1
    16     7     8    1
    17     8    26    1
    18     8     9    1
    19     8    35    1
    20     9    10    1
    21     9    36    1
    22     9    37    1
    23    10    11    1
    24    10    38    1
    25    10    39    1
    26    12    11    1
    27    11    25    1
    28    12    13    2
    29    12    14    2
    30    12    15    1
    31    15    24   ar
    32    15    16   ar
    33    16    17   ar
    34    16    40    1
    35    17    18   ar
    36    17    41    1
    37    18    19    1
    38    18    23   ar
    39    19    20    1
    40    19    21    1
    41    19    22    1
    42    23    24   ar
    43    23    42    1
    44    24    43    1
    45    25    26    1
    46    25    44    1
    47    25    45    1
    48    26    46    1
    49    26    47    1
