@<TRIPOS>MOLECULE
ZINC000020033128
 62 64 0 0 0
SMALL
GASTEIGER

@<TRIPOS>ATOM
      1 C          -0.0178    1.4608    0.0101 C.3     1  UNL1        0.0086
      2 N           0.0021   -0.0041    0.0020 N.3     1  UNL1       -0.1827
      3 C           1.2806   -0.7192   -0.0140 C.3     1  UNL1        0.0086
      4 S          -1.4206   -0.8515    0.0111 S.O2    1  UNL1        0.0604
      5 O          -1.1207   -2.1334    0.5458 O.2     1  UNL1       -0.1529
      6 O          -2.3996    0.0139    0.5695 O.2     1  UNL1       -0.1529
      7 C          -1.8848   -1.1094   -1.6690 C.ar    1  UNL1        0.1055
      8 C          -2.6748   -0.1792   -2.3184 C.ar    1  UNL1       -0.0350
      9 C          -3.0389   -0.3815   -3.6365 C.ar    1  UNL1       -0.0552
     10 C          -2.6127   -1.5137   -4.3053 C.ar    1  UNL1       -0.0302
     11 C          -3.0101   -1.7345   -5.7421 C.3     1  UNL1        0.0368
     12 N          -2.0065   -1.1338   -6.6242 N.am    1  UNL1       -0.3112
     13 C          -2.1540   -1.2080   -7.9618 C.2     1  UNL1        0.2136
     14 O          -3.1176   -1.7722   -8.4353 O.2     1  UNL1       -0.2758
     15 C          -1.1217   -0.5901   -8.8692 C.3     1  UNL1        0.0279
     16 C          -1.5251   -0.8142  -10.3280 C.3     1  UNL1       -0.0194
     17 C          -0.4927   -0.1963  -11.2353 C.ar    1  UNL1       -0.0468
     18 C          -0.6247    1.1198  -11.6371 C.ar    1  UNL1       -0.0567
     19 C           0.3223    1.6867  -12.4694 C.ar    1  UNL1       -0.0351
     20 C           1.4015    0.9376  -12.8996 C.ar    1  UNL1        0.1055
     21 S           2.6082    1.6599  -13.9610 S.O2    1  UNL1        0.0610
     22 O           3.2300    0.5850  -14.6518 O.2     1  UNL1       -0.1528
     23 O           1.9652    2.7406  -14.6228 O.2     1  UNL1       -0.1528
     24 N           3.7732    2.3305  -12.9938 N.3     1  UNL1       -0.1722
     25 C           3.6646    3.7234  -12.5318 C.3     1  UNL1        0.0440
     26 C           3.8704    3.7464  -11.0129 C.3     1  UNL1        0.0621
     27 O           5.0850    3.0639  -10.6921 O.3     1  UNL1       -0.3771
     28 C           5.0907    1.6798  -11.0499 C.3     1  UNL1        0.0621
     29 C           4.9445    1.5493  -12.5661 C.3     1  UNL1        0.0440
     30 C           1.5342   -0.3781  -12.4968 C.ar    1  UNL1       -0.0351
     31 C           0.5892   -0.9438  -11.6614 C.ar    1  UNL1       -0.0567
     32 C          -1.8217   -2.4432   -3.6564 C.ar    1  UNL1       -0.0552
     33 C          -1.4543   -2.2390   -2.3395 C.ar    1  UNL1       -0.0350
     34 H           1.0048    1.8381    0.0023 H       1  UNL1        0.0408
     35 H          -0.5450    1.8219   -0.8730 H       1  UNL1        0.0408
     36 H          -0.5280    1.8123    0.9069 H       1  UNL1        0.0408
     37 H           1.6074   -0.9021    1.0096 H       1  UNL1        0.0408
     38 H           1.1583   -1.6705   -0.5318 H       1  UNL1        0.0408
     39 H           2.0272   -0.1171   -0.5318 H       1  UNL1        0.0408
     40 H          -3.0077    0.7053   -1.7959 H       1  UNL1        0.0637
     41 H          -3.6567    0.3448   -4.1436 H       1  UNL1        0.0621
     42 H          -3.0749   -2.8043   -5.9409 H       1  UNL1        0.0512
     43 H          -3.9795   -1.2714   -5.9263 H       1  UNL1        0.0512
     44 H          -1.2358   -0.6826   -6.2456 H       1  UNL1        0.1490
     45 H          -1.0569    0.4797   -8.6704 H       1  UNL1        0.0361
     46 H          -0.1523   -1.0532   -8.6851 H       1  UNL1        0.0361
     47 H          -1.5899   -1.8840  -10.5267 H       1  UNL1        0.0318
     48 H          -2.4945   -0.3511  -10.5121 H       1  UNL1        0.0318
     49 H          -1.4679    1.7051  -11.3010 H       1  UNL1        0.0621
     50 H           0.2188    2.7147  -12.7839 H       1  UNL1        0.0637
     51 H           4.4295    4.3312  -13.0151 H       1  UNL1        0.0466
     52 H           2.6766    4.1146  -12.7743 H       1  UNL1        0.0466
     53 H           3.9314    4.7790  -10.6693 H       1  UNL1        0.0573
     54 H           3.0330    3.2482  -10.5244 H       1  UNL1        0.0573
     55 H           6.0295    1.2257  -10.7329 H       1  UNL1        0.0573
     56 H           4.2577    1.1741  -10.5616 H       1  UNL1        0.0573
     57 H           4.8061    0.5015  -12.8327 H       1  UNL1        0.0466
     58 H           5.8372    1.9384  -13.0558 H       1  UNL1        0.0466
     59 H           2.3775   -0.9632  -12.8326 H       1  UNL1        0.0637
     60 H           0.6929   -1.9717  -11.3466 H       1  UNL1        0.0621
     61 H          -1.4884   -3.3276   -4.1790 H       1  UNL1        0.0621
     62 H          -0.8363   -2.9652   -1.8324 H       1  UNL1        0.0637
@<TRIPOS>BOND
     1     1     2    1
     2     1    34    1
     3     1    35    1
     4     1    36    1
     5     2     3    1
     6     4     2    1
     7     3    37    1
     8     3    38    1
     9     3    39    1
    10     4     5    2
    11     4     6    2
    12     4     7    1
    13     7    33   ar
    14     7     8   ar
    15     8     9   ar
    16     8    40    1
    17     9    10   ar
    18     9    41    1
    19    10    11    1
    20    10    32   ar
    21    11    12    1
    22    11    42    1
    23    11    43    1
    24    12    13   am
    25    12    44    1
    26    13    14    2
    27    13    15    1
    28    15    16    1
    29    15    45    1
    30    15    46    1
    31    16    17    1
    32    16    47    1
    33    16    48    1
    34    17    31   ar
    35    17    18   ar
    36    18    19   ar
    37    18    49    1
    38    19    20   ar
    39    19    50    1
    40    20    21    1
    41    20    30   ar
    42    21    22    2
    43    21    23    2
    44    21    24    1
    45    24    29    1
    46    24    25    1
    47    25    26    1
    48    25    51    1
    49    25    52    1
    50    26    27    1
    51    26    53    1
    52    26    54    1
    53    27    28    1
    54    28    29    1
    55    28    55    1
    56    28    56    1
    57    29    57    1
    58    29    58    1
    59    30    31   ar
    60    30    59    1
    61    31    60    1
    62    32    33   ar
    63    32    61    1
    64    33    62    1
