@<TRIPOS>MOLECULE
ZINC000004255672
 22 22 0 0 0
SMALL
GASTEIGER

@<TRIPOS>ATOM
      1 O          -1.3907    0.7163   -2.8542 O.2     1  UNL1       -0.1261
      2 N          -0.9104    1.5229   -2.0781 N.pl3   1  UNL1        0.0584
      3 O           0.2505    1.8700   -2.2014 O.2     1  UNL1       -0.1261
      4 C          -1.7395    2.0859   -0.9887 C.ar    1  UNL1        0.1542
      5 C          -2.5432    1.2543   -0.2315 C.ar    1  UNL1       -0.0178
      6 C          -3.3174    1.7801    0.7859 C.ar    1  UNL1        0.0592
      7 C          -4.1940    0.8736    1.6111 C.3     1  UNL1        0.4176
      8 F          -3.4738    0.4082    2.7165 F       1  UNL1       -0.1659
      9 F          -5.3161    1.5839    2.0510 F       1  UNL1       -0.1659
     10 F          -4.6058   -0.2129    0.8318 F       1  UNL1       -0.1659
     11 C          -3.2872    3.1373    1.0466 C.ar    1  UNL1       -0.0178
     12 C          -2.4832    3.9688    0.2896 C.ar    1  UNL1        0.1542
     13 N          -2.4513    5.4221    0.5684 N.pl3   1  UNL1        0.0584
     14 O          -3.4857    6.0194    0.8068 O.2     1  UNL1       -0.1261
     15 O          -1.3906    6.0208    0.5595 O.2     1  UNL1       -0.1261
     16 C          -1.7057    3.4424   -0.7249 C.ar    1  UNL1        0.1557
     17 S          -0.6808    4.5023   -1.6898 S.3     1  UNL1        0.0452
     18 O           0.5969    4.5918   -1.0002 O.3     1  UNL1       -0.0649
     19 O          -0.5520    3.8827   -2.9996 O.3     1  UNL1       -0.0649
     20 O          -1.3554    5.7892   -1.7586 O.3     1  UNL1       -0.0649
     21 H          -2.5665    0.1939   -0.4349 H       1  UNL1        0.0646
     22 H          -3.8921    3.5480    1.8414 H       1  UNL1        0.0646
@<TRIPOS>BOND
     1     1     2    2
     2     2     3    2
     3     2     4    1
     4     4    16   ar
     5     4     5   ar
     6     5     6   ar
     7     5    21    1
     8     6     7    1
     9     6    11   ar
    10     7     8    1
    11     7     9    1
    12     7    10    1
    13    11    12   ar
    14    11    22    1
    15    12    13    1
    16    12    16   ar
    17    13    14    2
    18    13    15    2
    19    16    17    1
    20    17    18    1
    21    17    19    1
    22    17    20    1
