@<TRIPOS>MOLECULE
ZINC000408621453
 50 51 0 0 0
SMALL
GASTEIGER

@<TRIPOS>ATOM
      1 C          -0.0173    1.4248    0.0099 C.3     1  UNL1        0.0365
      2 O           0.0021   -0.0041    0.0020 O.3     1  UNL1       -0.3812
      3 C           0.6518   -0.5703   -1.1379 C.3     1  UNL1        0.0654
      4 C           0.6131   -2.0967   -1.0411 C.3     1  UNL1        0.0437
      5 H           1.1847   -2.5275   -1.8631 H       1  UNL1        0.0518
      6 C           1.2226   -2.5389    0.2908 C.3     1  UNL1       -0.0445
      7 N          -0.7759   -2.5559   -1.1188 N.am    1  UNL1       -0.3094
      8 C          -1.0505   -3.8014   -1.5545 C.2     1  UNL1        0.2291
      9 O          -0.1478   -4.5420   -1.8822 O.2     1  UNL1       -0.2743
     10 C          -2.4794   -4.2737   -1.6345 C.3     1  UNL1        0.0971
     11 N          -2.5113   -5.6507   -2.1337 N.3     1  UNL1       -0.1635
     12 C          -2.3406   -6.7707   -1.2049 C.3     1  UNL1        0.0460
     13 C          -3.6703   -7.1173   -0.5862 C.ar    1  UNL1       -0.0316
     14 C          -4.0690   -6.5008    0.5852 C.ar    1  UNL1       -0.0559
     15 C          -5.2884   -6.8183    1.1531 C.ar    1  UNL1       -0.0431
     16 C          -6.1101   -7.7532    0.5491 C.ar    1  UNL1        0.0410
     17 CL         -7.6421   -8.1521    1.2615 Cl      1  UNL1       -0.0835
     18 C          -5.7105   -8.3698   -0.6232 C.ar    1  UNL1       -0.0431
     19 C          -4.4934   -8.0474   -1.1932 C.ar    1  UNL1       -0.0559
     20 S          -2.7403   -5.9412   -3.7479 S.O2    1  UNL1        0.0616
     21 O          -3.4052   -7.1936   -3.8398 O.2     1  UNL1       -0.1528
     22 O          -3.2629   -4.7413   -4.3013 O.2     1  UNL1       -0.1528
     23 C          -1.1483   -6.1690   -4.4678 C.ar    1  UNL1        0.1056
     24 C          -0.4534   -5.0827   -4.9661 C.ar    1  UNL1       -0.0340
     25 C           0.7954   -5.2608   -5.5309 C.ar    1  UNL1       -0.0415
     26 C           1.3500   -6.5265   -5.5976 C.ar    1  UNL1        0.0411
     27 CL          2.9188   -6.7509   -6.3064 Cl      1  UNL1       -0.0835
     28 C           0.6542   -7.6133   -5.0987 C.ar    1  UNL1       -0.0415
     29 C          -0.5922   -7.4331   -4.5290 C.ar    1  UNL1       -0.0340
     30 H           1.0053    1.8021    0.0021 H       1  UNL1        0.0523
     31 H          -0.5445    1.7859   -0.8732 H       1  UNL1        0.0523
     32 H          -0.5275    1.7763    0.9067 H       1  UNL1        0.0523
     33 H           0.1385   -0.2506   -2.0447 H       1  UNL1        0.0578
     34 H           1.6883   -0.2344   -1.1694 H       1  UNL1        0.0578
     35 H           2.2560   -2.1973    0.3487 H       1  UNL1        0.0248
     36 H           0.6509   -2.1081    1.1128 H       1  UNL1        0.0248
     37 H           1.1950   -3.6264    0.3598 H       1  UNL1        0.0248
     38 H          -1.4979   -1.9635   -0.8568 H       1  UNL1        0.1491
     39 H          -2.9305   -4.2361   -0.6430 H       1  UNL1        0.0539
     40 H          -3.0379   -3.6284   -2.3125 H       1  UNL1        0.0539
     41 H          -1.9549   -7.6352   -1.7451 H       1  UNL1        0.0493
     42 H          -1.6376   -6.4888   -0.4210 H       1  UNL1        0.0493
     43 H          -3.4274   -5.7713    1.0568 H       1  UNL1        0.0621
     44 H          -5.5997   -6.3369    2.0684 H       1  UNL1        0.0632
     45 H          -6.3514   -9.1000   -1.0950 H       1  UNL1        0.0632
     46 H          -4.1815   -8.5284   -2.1085 H       1  UNL1        0.0621
     47 H          -0.8867   -4.0948   -4.9143 H       1  UNL1        0.0637
     48 H           1.3380   -4.4121   -5.9205 H       1  UNL1        0.0633
     49 H           1.0865   -8.6016   -5.1508 H       1  UNL1        0.0633
     50 H          -1.1353   -8.2813   -4.1392 H       1  UNL1        0.0637
@<TRIPOS>BOND
     1     1     2    1
     2     1    30    1
     3     1    31    1
     4     1    32    1
     5     2     3    1
     6     3     4    1
     7     3    33    1
     8     3    34    1
     9     4     5    1
    10     4     6    1
    11     4     7    1
    12     6    35    1
    13     6    36    1
    14     6    37    1
    15     7     8   am
    16     7    38    1
    17     8     9    2
    18     8    10    1
    19    10    11    1
    20    10    39    1
    21    10    40    1
    22    11    12    1
    23    20    11    1
    24    12    13    1
    25    12    41    1
    26    12    42    1
    27    13    19   ar
    28    13    14   ar
    29    14    15   ar
    30    14    43    1
    31    15    16   ar
    32    15    44    1
    33    16    17    1
    34    16    18   ar
    35    18    19   ar
    36    18    45    1
    37    19    46    1
    38    20    21    2
    39    20    22    2
    40    20    23    1
    41    23    29   ar
    42    23    24   ar
    43    24    25   ar
    44    24    47    1
    45    25    26   ar
    46    25    48    1
    47    26    27    1
    48    26    28   ar
    49    28    29   ar
    50    28    49    1
    51    29    50    1
