@<TRIPOS>MOLECULE
ZINC000237809622
 39 40 0 0 0
SMALL
GASTEIGER

@<TRIPOS>ATOM
      1 C          -0.1121    1.6660    0.0477 C.3     1  UNL1       -0.0379
      2 C          -0.1549    0.1612    0.1170 C.ar    1  UNL1       -0.0241
      3 C          -0.3301   -0.5790   -1.0370 C.ar    1  UNL1       -0.0565
      4 C          -0.3694   -1.9596   -0.9735 C.ar    1  UNL1       -0.0498
      5 C          -0.2329   -2.5995    0.2439 C.ar    1  UNL1        0.0567
      6 C          -0.2762   -4.1043    0.3132 C.3     1  UNL1        0.4175
      7 F          -0.4619   -4.6252   -0.9719 F       1  UNL1       -0.1659
      8 F           0.9285   -4.5817    0.8404 F       1  UNL1       -0.1659
      9 F          -1.3355   -4.5030    1.1355 F       1  UNL1       -0.1659
     10 C          -0.0563   -1.8592    1.3981 C.ar    1  UNL1       -0.0235
     11 C          -0.0132   -0.4792    1.3341 C.ar    1  UNL1        0.1089
     12 S           0.2120    0.4644    2.8050 S.O2    1  UNL1        0.0615
     13 O          -0.7977    1.4642    2.7989 O.2     1  UNL1       -0.1528
     14 O           0.3721   -0.4720    3.8618 O.2     1  UNL1       -0.1528
     15 N           1.6578    1.2590    2.6612 N.3     1  UNL1       -0.1685
     16 C           1.8289    2.6630    2.2456 C.3     1  UNL1        0.0211
     17 C           3.2694    2.7365    1.6805 C.3     1  UNL1       -0.0369
     18 C           4.0283    1.7788    2.6366 C.3     1  UNL1       -0.0295
     19 C           2.9829    0.6829    2.9330 C.3     1  UNL1        0.0716
     20 H           3.1497   -0.1746    2.2810 H       1  UNL1        0.0533
     21 C           3.0832    0.2503    4.3971 C.3     1  UNL1       -0.0177
     22 N           4.3981   -0.3584    4.6389 N.4     1  UNL1        0.2197
     23 H           4.5451   -1.1123    3.9846 H       1  UNL1        0.1995
     24 H           5.1184    0.3376    4.5174 H       1  UNL1        0.1995
     25 H           4.4339   -0.7187    5.5807 H       1  UNL1        0.1995
     26 H           0.9247    1.9977   -0.0085 H       1  UNL1        0.0278
     27 H          -0.6504    2.0044   -0.8376 H       1  UNL1        0.0278
     28 H          -0.5796    2.0841    0.9392 H       1  UNL1        0.0278
     29 H          -0.4367   -0.0790   -1.9883 H       1  UNL1        0.0621
     30 H          -0.5070   -2.5379   -1.8752 H       1  UNL1        0.0623
     31 H           0.0507   -2.3592    2.3494 H       1  UNL1        0.0643
     32 H           1.1047    2.9209    1.4729 H       1  UNL1        0.0444
     33 H           1.7233    3.3280    3.1028 H       1  UNL1        0.0444
     34 H           3.3053    2.3728    0.6536 H       1  UNL1        0.0279
     35 H           3.6644    3.7502    1.7483 H       1  UNL1        0.0279
     36 H           4.9042    1.3564    2.1441 H       1  UNL1        0.0283
     37 H           4.3117    2.2946    3.5541 H       1  UNL1        0.0283
     38 H           2.9616    1.1205    5.0422 H       1  UNL1        0.0829
     39 H           2.3007   -0.4763    4.6158 H       1  UNL1        0.0829
@<TRIPOS>UNITY_ATOM_ATTR
22 1
charge 1
@<TRIPOS>BOND
     1     1     2    1
     2     1    26    1
     3     1    27    1
     4     1    28    1
     5     2    11   ar
     6     2     3   ar
     7     3     4   ar
     8     3    29    1
     9     4     5   ar
    10     4    30    1
    11     5     6    1
    12     5    10   ar
    13     6     7    1
    14     6     8    1
    15     6     9    1
    16    10    11   ar
    17    10    31    1
    18    11    12    1
    19    12    13    2
    20    12    14    2
    21    12    15    1
    22    15    19    1
    23    15    16    1
    24    16    17    1
    25    16    32    1
    26    16    33    1
    27    17    18    1
    28    17    34    1
    29    17    35    1
    30    18    19    1
    31    18    36    1
    32    18    37    1
    33    19    20    1
    34    19    21    1
    35    21    22    1
    36    21    38    1
    37    21    39    1
    38    22    23    1
    39    22    24    1
    40    22    25    1
