@<TRIPOS>MOLECULE
ZINC000408561896
 56 58 0 0 0
SMALL
GASTEIGER

@<TRIPOS>ATOM
      1 C           0.6340    1.5968   -0.0984 C.3     1  UNL1       -0.0397
      2 C           0.2502    0.1409   -0.1617 C.ar    1  UNL1       -0.0498
      3 C           0.1652   -0.6027    1.0006 C.ar    1  UNL1       -0.0540
      4 C          -0.1869   -1.9382    0.9425 C.ar    1  UNL1       -0.0236
      5 C          -0.2790   -2.7489    2.2096 C.3     1  UNL1       -0.0378
      6 C          -0.4549   -2.5299   -0.2777 C.ar    1  UNL1        0.1113
      7 S          -0.9042   -4.2320   -0.3516 S.O2    1  UNL1        0.0614
      8 O          -1.5141   -4.5405    0.8943 O.2     1  UNL1       -0.1528
      9 O          -1.5518   -4.4221   -1.6021 O.2     1  UNL1       -0.1528
     10 N           0.5000   -5.1075   -0.4143 N.3     1  UNL1       -0.1758
     11 C           1.2034   -5.3039   -1.6893 C.3     1  UNL1        0.0205
     12 C           2.6591   -4.8566   -1.5233 C.3     1  UNL1       -0.0378
     13 C           3.2846   -5.5981   -0.3396 C.3     1  UNL1       -0.0395
     14 C           2.5235   -5.2508    0.9419 C.3     1  UNL1        0.0502
     15 H           2.5566   -4.1734    1.1040 H       1  UNL1        0.0407
     16 C           3.1606   -5.9553    2.1118 C.2     1  UNL1        0.2216
     17 O           2.5135   -6.7396    2.7730 O.2     1  UNL1       -0.2751
     18 N           4.4494   -5.7139    2.4235 N.am    1  UNL1       -0.2852
     19 C           5.0146   -6.2964    3.5633 C.ar    1  UNL1        0.0334
     20 C           5.9487   -5.5940    4.3134 C.ar    1  UNL1       -0.0399
     21 C           6.5047   -6.1718    5.4378 C.ar    1  UNL1       -0.0484
     22 C           6.1325   -7.4486    5.8168 C.ar    1  UNL1        0.0549
     23 C           6.7416   -8.0762    7.0441 C.3     1  UNL1        0.4174
     24 F           5.9594   -7.7682    8.1624 F       1  UNL1       -0.1659
     25 F           6.7949   -9.4645    6.8803 F       1  UNL1       -0.1659
     26 F           8.0359   -7.5784    7.2289 F       1  UNL1       -0.1659
     27 C           5.2023   -8.1505    5.0723 C.ar    1  UNL1       -0.0484
     28 C           4.6383   -7.5760    3.9500 C.ar    1  UNL1       -0.0399
     29 C           1.0695   -5.6974    0.8048 C.3     1  UNL1        0.0316
     30 C          -0.3708   -1.7861   -1.4398 C.ar    1  UNL1       -0.0236
     31 C          -0.6635   -2.4311   -2.7700 C.3     1  UNL1       -0.0378
     32 C          -0.0224   -0.4497   -1.3814 C.ar    1  UNL1       -0.0540
     33 H          -0.2637    2.2047    0.0139 H       1  UNL1        0.0278
     34 H           1.2935    1.7620    0.7536 H       1  UNL1        0.0278
     35 H           1.1499    1.8768   -1.0168 H       1  UNL1        0.0278
     36 H           0.3743   -0.1403    1.9539 H       1  UNL1        0.0623
     37 H          -1.3142   -2.7749    2.5497 H       1  UNL1        0.0278
     38 H           0.0658   -3.7648    2.0167 H       1  UNL1        0.0278
     39 H           0.3448   -2.2933    2.9786 H       1  UNL1        0.0278
     40 H           1.1742   -6.3583   -1.9640 H       1  UNL1        0.0444
     41 H           0.7244   -4.7082   -2.4664 H       1  UNL1        0.0444
     42 H           3.2160   -5.0861   -2.4317 H       1  UNL1        0.0278
     43 H           2.6909   -3.7829   -1.3379 H       1  UNL1        0.0278
     44 H           3.2302   -6.6726   -0.5144 H       1  UNL1        0.0273
     45 H           4.3278   -5.2999   -0.2346 H       1  UNL1        0.0273
     46 H           4.9852   -5.1363    1.8576 H       1  UNL1        0.1548
     47 H           6.2403   -4.5971    4.0175 H       1  UNL1        0.0636
     48 H           7.2312   -5.6261    6.0216 H       1  UNL1        0.0624
     49 H           4.9137   -9.1474    5.3709 H       1  UNL1        0.0624
     50 H           3.9119   -8.1248    3.3690 H       1  UNL1        0.0636
     51 H           0.5015   -5.3641    1.6734 H       1  UNL1        0.0451
     52 H           1.0263   -6.7841    0.7325 H       1  UNL1        0.0451
     53 H          -1.7391   -2.4278   -2.9466 H       1  UNL1        0.0278
     54 H          -0.1636   -1.8734   -3.5620 H       1  UNL1        0.0278
     55 H          -0.2995   -3.4585   -2.7636 H       1  UNL1        0.0278
     56 H           0.0432    0.1314   -2.2894 H       1  UNL1        0.0623
@<TRIPOS>BOND
     1     1     2    1
     2     1    33    1
     3     1    34    1
     4     1    35    1
     5     2    32   ar
     6     2     3   ar
     7     3     4   ar
     8     3    36    1
     9     4     5    1
    10     4     6   ar
    11     5    37    1
    12     5    38    1
    13     5    39    1
    14     6     7    1
    15     6    30   ar
    16     7     8    2
    17     7     9    2
    18     7    10    1
    19    10    29    1
    20    10    11    1
    21    11    12    1
    22    11    40    1
    23    11    41    1
    24    12    13    1
    25    12    42    1
    26    12    43    1
    27    13    14    1
    28    13    44    1
    29    13    45    1
    30    14    15    1
    31    14    16    1
    32    14    29    1
    33    16    17    2
    34    16    18   am
    35    18    19    1
    36    18    46    1
    37    19    28   ar
    38    19    20   ar
    39    20    21   ar
    40    20    47    1
    41    21    22   ar
    42    21    48    1
    43    22    23    1
    44    22    27   ar
    45    23    24    1
    46    23    25    1
    47    23    26    1
    48    27    28   ar
    49    27    49    1
    50    28    50    1
    51    29    51    1
    52    29    52    1
    53    30    31    1
    54    30    32   ar
    55    31    53    1
    56    31    54    1
    57    31    55    1
    58    32    56    1
