@<TRIPOS>MOLECULE
ZINC000001028337
 41 42 0 0 0
SMALL
GASTEIGER

@<TRIPOS>ATOM
      1 C          -0.0187    1.5258    0.0104 C.3     1  UNL1       -0.0305
      2 C           0.0021   -0.0041    0.0020 C.3     1  UNL1        0.0913
      3 O           0.6817   -0.4723   -1.1926 O.3     1  UNL1       -0.4505
      4 C           0.7865   -1.8049   -1.3536 C.2     1  UNL1        0.4029
      5 O           0.3228   -2.5561   -0.5186 O.2     1  UNL1       -0.2263
      6 N           1.4059   -2.3058   -2.4408 N.am    1  UNL1       -0.2649
      7 C           1.9768   -1.4092   -3.4557 C.3     1  UNL1        0.0323
      8 C           3.4578   -1.7612   -3.6431 C.3     1  UNL1        0.0364
      9 N           3.5747   -3.2136   -3.8347 N.3     1  UNL1       -0.1736
     10 S           4.3366   -3.8289   -5.1701 S.O2    1  UNL1        0.0609
     11 O           3.8233   -5.1409   -5.3560 O.2     1  UNL1       -0.1528
     12 O           4.2723   -2.8204   -6.1691 O.2     1  UNL1       -0.1528
     13 C           6.0400   -4.0146   -4.7594 C.ar    1  UNL1        0.1055
     14 C           6.9222   -2.9740   -4.9826 C.ar    1  UNL1       -0.0348
     15 C           8.2585   -3.1197   -4.6604 C.ar    1  UNL1       -0.0483
     16 C           8.7126   -4.3058   -4.1146 C.ar    1  UNL1        0.0549
     17 C          10.1696   -4.4648   -3.7639 C.3     1  UNL1        0.4174
     18 F          10.3797   -4.0491   -2.4447 F       1  UNL1       -0.1659
     19 F          10.5365   -5.8086   -3.8934 F       1  UNL1       -0.1659
     20 F          10.9451   -3.6842   -4.6279 F       1  UNL1       -0.1659
     21 C           7.8302   -5.3459   -3.8903 C.ar    1  UNL1       -0.0483
     22 C           6.4931   -5.1989   -4.2089 C.ar    1  UNL1       -0.0348
     23 C           3.0037   -4.1101   -2.8198 C.3     1  UNL1        0.0364
     24 C           1.5277   -3.7581   -2.6296 C.3     1  UNL1        0.0323
     25 H           1.0039    1.9031    0.0027 H       1  UNL1        0.0262
     26 H          -0.5459    1.8868   -0.8726 H       1  UNL1        0.0262
     27 H          -0.5289    1.8773    0.9072 H       1  UNL1        0.0262
     28 H           0.5293   -0.3651    0.8851 H       1  UNL1        0.0695
     29 H          -1.0205   -0.3814    0.0098 H       1  UNL1        0.0695
     30 H           1.4473   -1.5406   -4.3994 H       1  UNL1        0.0479
     31 H           1.8858   -0.3752   -3.1232 H       1  UNL1        0.0479
     32 H           3.8487   -1.2440   -4.5194 H       1  UNL1        0.0459
     33 H           4.0196   -1.4626   -2.7581 H       1  UNL1        0.0459
     34 H           6.5674   -2.0473   -5.4089 H       1  UNL1        0.0637
     35 H           8.9479   -2.3069   -4.8354 H       1  UNL1        0.0624
     36 H           8.1849   -6.2725   -3.4635 H       1  UNL1        0.0624
     37 H           5.8037   -6.0115   -4.0336 H       1  UNL1        0.0637
     38 H           3.0947   -5.1442   -3.1523 H       1  UNL1        0.0459
     39 H           3.5332   -3.9787   -1.8762 H       1  UNL1        0.0459
     40 H           1.1381   -4.2760   -1.7532 H       1  UNL1        0.0479
     41 H           0.9638   -4.0553   -3.5138 H       1  UNL1        0.0479
@<TRIPOS>BOND
     1     1     2    1
     2     1    25    1
     3     1    26    1
     4     1    27    1
     5     2     3    1
     6     2    28    1
     7     2    29    1
     8     3     4    1
     9     4     5    2
    10     4     6   am
    11     6    24    1
    12     6     7    1
    13     7     8    1
    14     7    30    1
    15     7    31    1
    16     8     9    1
    17     8    32    1
    18     8    33    1
    19    10     9    1
    20     9    23    1
    21    10    11    2
    22    10    12    2
    23    10    13    1
    24    13    22   ar
    25    13    14   ar
    26    14    15   ar
    27    14    34    1
    28    15    16   ar
    29    15    35    1
    30    16    17    1
    31    16    21   ar
    32    17    18    1
    33    17    19    1
    34    17    20    1
    35    21    22   ar
    36    21    36    1
    37    22    37    1
    38    23    24    1
    39    23    38    1
    40    23    39    1
    41    24    40    1
    42    24    41    1
