@<TRIPOS>MOLECULE
ZINC000024686440
 40 41 0 0 0
SMALL
GASTEIGER

@<TRIPOS>ATOM
      1 C          -0.2459    0.8452   -1.1699 C.3     1  UNL1        0.0001
      2 N          -0.4715   -0.6013   -1.1149 N.am    1  UNL1       -0.3170
      3 C          -1.0284   -1.1553   -0.0197 C.2     1  UNL1        0.2317
      4 O          -1.3429   -0.4563    0.9202 O.2     1  UNL1       -0.2740
      5 C          -1.2604   -2.6432    0.0369 C.3     1  UNL1        0.1077
      6 H          -0.8979   -3.1048   -0.8816 H       1  UNL1        0.0575
      7 C          -0.5146   -3.2339    1.2376 C.3     1  UNL1       -0.0272
      8 C          -0.8652   -4.7176    1.3712 C.3     1  UNL1       -0.0499
      9 C          -2.3686   -4.8683    1.6147 C.3     1  UNL1       -0.0385
     10 C          -3.1354   -4.2961    0.4183 C.3     1  UNL1        0.0213
     11 N          -2.6967   -2.9123    0.1898 N.3     1  UNL1       -0.1647
     12 S          -3.7996   -1.6794    0.1123 S.O2    1  UNL1        0.0615
     13 O          -3.1852   -0.6376   -0.6336 O.2     1  UNL1       -0.1528
     14 O          -5.0382   -2.2715   -0.2543 O.2     1  UNL1       -0.1528
     15 C          -4.0083   -1.0627    1.7496 C.ar    1  UNL1        0.1055
     16 C          -4.7347   -1.7892    2.6745 C.ar    1  UNL1       -0.0348
     17 C          -4.8984   -1.3054    3.9590 C.ar    1  UNL1       -0.0483
     18 C          -4.3353   -0.0952    4.3188 C.ar    1  UNL1        0.0549
     19 C          -4.5142    0.4325    5.7190 C.3     1  UNL1        0.4174
     20 F          -3.4696   -0.0277    6.5278 F       1  UNL1       -0.1659
     21 F          -4.5041    1.8313    5.6950 F       1  UNL1       -0.1659
     22 F          -5.7351   -0.0162    6.2340 F       1  UNL1       -0.1659
     23 C          -3.6078    0.6307    3.3943 C.ar    1  UNL1       -0.0483
     24 C          -3.4409    0.1450    2.1109 C.ar    1  UNL1       -0.0348
     25 H           0.2090    1.1059   -2.1255 H       1  UNL1        0.0426
     26 H          -1.1981    1.3656   -1.0669 H       1  UNL1        0.0426
     27 H           0.4191    1.1404   -0.3583 H       1  UNL1        0.0426
     28 H          -0.2200   -1.1603   -1.8666 H       1  UNL1        0.1484
     29 H           0.5597   -3.1260    1.0875 H       1  UNL1        0.0286
     30 H          -0.8104   -2.7070    2.1448 H       1  UNL1        0.0286
     31 H          -0.5917   -5.2394    0.4541 H       1  UNL1        0.0266
     32 H          -0.3167   -5.1462    2.2100 H       1  UNL1        0.0266
     33 H          -2.6139   -5.9237    1.7330 H       1  UNL1        0.0278
     34 H          -2.6469   -4.3261    2.5183 H       1  UNL1        0.0278
     35 H          -2.9276   -4.8943   -0.4689 H       1  UNL1        0.0444
     36 H          -4.2048   -4.3106    0.6290 H       1  UNL1        0.0444
     37 H          -5.1746   -2.7347    2.3935 H       1  UNL1        0.0637
     38 H          -5.4665   -1.8726    4.6814 H       1  UNL1        0.0624
     39 H          -3.1676    1.5759    3.6755 H       1  UNL1        0.0624
     40 H          -2.8724    0.7121    1.3886 H       1  UNL1        0.0637
@<TRIPOS>BOND
     1     1     2    1
     2     1    25    1
     3     1    26    1
     4     1    27    1
     5     2     3   am
     6     2    28    1
     7     3     4    2
     8     3     5    1
     9     5     6    1
    10     5    11    1
    11     5     7    1
    12     7     8    1
    13     7    29    1
    14     7    30    1
    15     8     9    1
    16     8    31    1
    17     8    32    1
    18     9    10    1
    19     9    33    1
    20     9    34    1
    21    10    11    1
    22    10    35    1
    23    10    36    1
    24    12    11    1
    25    12    13    2
    26    12    14    2
    27    12    15    1
    28    15    24   ar
    29    15    16   ar
    30    16    17   ar
    31    16    37    1
    32    17    18   ar
    33    17    38    1
    34    18    19    1
    35    18    23   ar
    36    19    20    1
    37    19    21    1
    38    19    22    1
    39    23    24   ar
    40    23    39    1
    41    24    40    1
