@<TRIPOS>MOLECULE
ZINC000013681610
 49 51 0 0 0
SMALL
GASTEIGER

@<TRIPOS>ATOM
      1 C          -0.0896    1.8527   -0.3915 C.3     1  UNL1        0.0790
      2 O          -0.1774    0.4264   -0.4008 O.3     1  UNL1       -0.4915
      3 C           0.4522   -0.2243   -1.4155 C.ar    1  UNL1        0.1615
      4 C           1.1437    0.4938   -2.3773 C.ar    1  UNL1       -0.0160
      5 C           1.7837   -0.1694   -3.4082 C.ar    1  UNL1       -0.0548
      6 C           1.7350   -1.5486   -3.4822 C.ar    1  UNL1       -0.0422
      7 C           2.4338   -2.2663   -4.6081 C.3     1  UNL1       -0.0112
      8 C           3.8688   -2.5943   -4.1909 C.3     1  UNL1        0.0279
      9 N           4.5481   -3.2920   -5.2854 N.am    1  UNL1       -0.2222
     10 C           4.5514   -4.6207   -5.4425 C.2     1  UNL1        0.3107
     11 O           3.9889   -5.3914   -4.6896 O.2     1  UNL1       -0.2521
     12 N           5.2468   -5.0083   -6.5269 N.am    1  UNL1       -0.2632
     13 C           5.7625   -3.7809   -7.1576 C.3     1  UNL1        0.2776
     14 N           5.2282   -3.6347   -8.5138 N.am    1  UNL1       -0.2796
     15 C           5.4100   -2.4826   -9.1891 C.2     1  UNL1        0.2182
     16 O           6.0863   -1.5981   -8.7083 O.2     1  UNL1       -0.2754
     17 C           4.7730   -2.2935  -10.5417 C.3     1  UNL1        0.0357
     18 C           3.6443   -1.2666  -10.6536 C.3     1  UNL1       -0.0412
     19 C           5.0169   -0.9635  -11.2577 C.3     1  UNL1       -0.0412
     20 C           7.2923   -3.7899   -7.1814 C.3     1  UNL1        0.4365
     21 F           7.7396   -4.8173   -8.0190 F       1  UNL1       -0.1662
     22 F           7.7584   -2.5611   -7.6609 F       1  UNL1       -0.1662
     23 F           7.7776   -3.9995   -5.8862 F       1  UNL1       -0.1662
     24 C           5.2422   -2.6744   -6.2617 C.2     1  UNL1        0.2742
     25 O           5.4185   -1.4821   -6.3929 O.2     1  UNL1       -0.2706
     26 C           1.0468   -2.2716   -2.5251 C.ar    1  UNL1       -0.0131
     27 C           0.4079   -1.6137   -1.4868 C.ar    1  UNL1        0.1617
     28 O          -0.2693   -2.3232   -0.5448 O.3     1  UNL1       -0.4914
     29 C          -0.2810   -3.7450   -0.6874 C.3     1  UNL1        0.0790
     30 H           0.9565    2.1519   -0.3269 H       1  UNL1        0.0660
     31 H          -0.5251    2.2495   -1.3086 H       1  UNL1        0.0660
     32 H          -0.6334    2.2446    0.4681 H       1  UNL1        0.0660
     33 H           1.1827    1.5717   -2.3222 H       1  UNL1        0.0655
     34 H           2.3225    0.3917   -4.1574 H       1  UNL1        0.0621
     35 H           1.9016   -3.1898   -4.8360 H       1  UNL1        0.0329
     36 H           2.4491   -1.6282   -5.4916 H       1  UNL1        0.0329
     37 H           4.4010   -1.6708   -3.9629 H       1  UNL1        0.0473
     38 H           3.8535   -3.2324   -3.3074 H       1  UNL1        0.0473
     39 H           5.3826   -5.9185   -6.8334 H       1  UNL1        0.1530
     40 H           4.7437   -4.3671   -8.9258 H       1  UNL1        0.1515
     41 H           4.7006   -3.1904  -11.1568 H       1  UNL1        0.0394
     42 H           2.8290   -1.4878  -11.3424 H       1  UNL1        0.0273
     43 H           3.3625   -0.7278   -9.7489 H       1  UNL1        0.0273
     44 H           5.6382   -0.2254  -10.7505 H       1  UNL1        0.0273
     45 H           5.1047   -0.9855  -12.3439 H       1  UNL1        0.0273
     46 H           1.0102   -3.3493   -2.5852 H       1  UNL1        0.0658
     47 H          -0.8540   -4.1872    0.1276 H       1  UNL1        0.0660
     48 H          -0.7394   -4.0108   -1.6399 H       1  UNL1        0.0660
     49 H           0.7416   -4.1214   -0.6586 H       1  UNL1        0.0660
@<TRIPOS>BOND
     1     1     2    1
     2     1    30    1
     3     1    31    1
     4     1    32    1
     5     2     3    1
     6     3    27   ar
     7     3     4   ar
     8     4     5   ar
     9     4    33    1
    10     5     6   ar
    11     5    34    1
    12     6     7    1
    13     6    26   ar
    14     7     8    1
    15     7    35    1
    16     7    36    1
    17     8     9    1
    18     8    37    1
    19     8    38    1
    20     9    24   am
    21     9    10   am
    22    10    11    2
    23    10    12   am
    24    12    13    1
    25    12    39    1
    26    13    14    1
    27    13    20    1
    28    13    24    1
    29    14    15   am
    30    14    40    1
    31    15    16    2
    32    15    17    1
    33    17    19    1
    34    17    18    1
    35    17    41    1
    36    18    19    1
    37    18    42    1
    38    18    43    1
    39    19    44    1
    40    19    45    1
    41    20    21    1
    42    20    22    1
    43    20    23    1
    44    24    25    2
    45    26    27   ar
    46    26    46    1
    47    27    28    1
    48    28    29    1
    49    29    47    1
    50    29    48    1
    51    29    49    1
