@<TRIPOS>MOLECULE
ZINC000058441528
 47 49 0 0 0
SMALL
GASTEIGER

@<TRIPOS>ATOM
      1 O          -0.1591    0.6370    1.0699 O.2     1  UNL1       -0.2738
      2 C           0.1284    1.3751    0.1515 C.2     1  UNL1        0.2345
      3 C           1.4823    2.0357    0.1112 C.3     1  UNL1        0.1080
      4 H           1.5774    2.6182   -0.8052 H       1  UNL1        0.0576
      5 C           1.6403    2.9575    1.3244 C.3     1  UNL1       -0.0272
      6 C           3.0646    3.5167    1.3532 C.3     1  UNL1       -0.0499
      7 C           4.0638    2.3654    1.4879 C.3     1  UNL1       -0.0385
      8 C           3.9333    1.4369    0.2765 C.3     1  UNL1        0.0213
      9 N           2.5327    1.0092    0.1536 N.3     1  UNL1       -0.1647
     10 S           2.1456   -0.5988    0.0708 S.O2    1  UNL1        0.0629
     11 O           0.9557   -0.6859   -0.7010 O.2     1  UNL1       -0.1528
     12 O           3.3439   -1.2830   -0.2685 O.2     1  UNL1       -0.1528
     13 C           1.7208   -1.1175    1.7003 C.ar    1  UNL1        0.1242
     14 C           0.4329   -1.5334    1.9795 C.ar    1  UNL1       -0.0223
     15 C           0.0994   -1.9404    3.2580 C.ar    1  UNL1        0.0567
     16 C          -1.3053   -2.3938    3.5618 C.3     1  UNL1        0.4175
     17 F          -1.4067   -3.7727    3.3484 F       1  UNL1       -0.1659
     18 F          -1.6103   -2.1047    4.8962 F       1  UNL1       -0.1659
     19 F          -2.2030   -1.7248    2.7228 F       1  UNL1       -0.1659
     20 C           1.0540   -1.9321    4.2576 C.ar    1  UNL1       -0.0486
     21 C           2.3427   -1.5164    3.9795 C.ar    1  UNL1       -0.0410
     22 C           2.6783   -1.1140    2.6993 C.ar    1  UNL1        0.0673
     23 CL          4.2965   -0.5918    2.3493 Cl      1  UNL1       -0.0815
     24 N          -0.7609    1.6001   -0.8359 N.am    1  UNL1       -0.3001
     25 C          -0.5068    2.3787   -2.0569 C.3     1  UNL1        0.0148
     26 C          -1.8148    2.3863   -2.8759 C.3     1  UNL1       -0.0357
     27 C          -2.8973    2.0895   -1.8047 C.3     1  UNL1       -0.0357
     28 C          -2.1476    1.1009   -0.8735 C.3     1  UNL1        0.0148
     29 H           0.9281    3.7795    1.2520 H       1  UNL1        0.0286
     30 H           1.4528    2.3925    2.2375 H       1  UNL1        0.0286
     31 H           3.2598    4.0607    0.4290 H       1  UNL1        0.0266
     32 H           3.1724    4.1923    2.2017 H       1  UNL1        0.0266
     33 H           5.0766    2.7660    1.5319 H       1  UNL1        0.0278
     34 H           3.8535    1.8059    2.3995 H       1  UNL1        0.0278
     35 H           4.2308    1.9702   -0.6264 H       1  UNL1        0.0444
     36 H           4.5712    0.5639    0.4148 H       1  UNL1        0.0444
     37 H          -0.3135   -1.5401    1.1988 H       1  UNL1        0.0643
     38 H           0.7929   -2.2502    5.2561 H       1  UNL1        0.0623
     39 H           3.0885   -1.5100    4.7606 H       1  UNL1        0.0633
     40 H          -0.2279    3.3992   -1.7944 H       1  UNL1        0.0464
     41 H           0.2901    1.9115   -2.6354 H       1  UNL1        0.0464
     42 H          -1.9795    3.3632   -3.3304 H       1  UNL1        0.0281
     43 H          -1.7989    1.6043   -3.6351 H       1  UNL1        0.0281
     44 H          -3.1782    2.9975   -1.2711 H       1  UNL1        0.0281
     45 H          -3.7706    1.6155   -2.2528 H       1  UNL1        0.0281
     46 H          -2.1822    0.0921   -1.2847 H       1  UNL1        0.0464
     47 H          -2.5809    1.1190    0.1265 H       1  UNL1        0.0464
@<TRIPOS>BOND
     1     1     2    2
     2     2     3    1
     3     2    24   am
     4     3     4    1
     5     3     9    1
     6     3     5    1
     7     5     6    1
     8     5    29    1
     9     5    30    1
    10     6     7    1
    11     6    31    1
    12     6    32    1
    13     7     8    1
    14     7    33    1
    15     7    34    1
    16     8     9    1
    17     8    35    1
    18     8    36    1
    19    10     9    1
    20    10    11    2
    21    10    12    2
    22    10    13    1
    23    13    22   ar
    24    13    14   ar
    25    14    15   ar
    26    14    37    1
    27    15    16    1
    28    15    20   ar
    29    16    17    1
    30    16    18    1
    31    16    19    1
    32    20    21   ar
    33    20    38    1
    34    21    22   ar
    35    21    39    1
    36    22    23    1
    37    24    28    1
    38    24    25    1
    39    25    26    1
    40    25    40    1
    41    25    41    1
    42    26    27    1
    43    26    42    1
    44    26    43    1
    45    27    28    1
    46    27    44    1
    47    27    45    1
    48    28    46    1
    49    28    47    1
