@<TRIPOS>MOLECULE
ZINC000088059249
 37 38 0 0 0
SMALL
GASTEIGER

@<TRIPOS>ATOM
      1 C          -0.0187    1.5258    0.0104 C.3     1  UNL1       -0.0482
      2 C           0.0021   -0.0041    0.0020 C.3     1  UNL1        0.0206
      3 H           0.5122   -0.3560   -0.8947 H       1  UNL1        0.0473
      4 C          -1.4353   -0.5350    0.0142 C.3     1  UNL1        0.0299
      5 N          -1.3917   -1.9983    0.1568 N.am    1  UNL1       -0.2985
      6 C          -2.0709   -2.7964   -0.6906 C.2     1  UNL1        0.2200
      7 O          -2.7293   -2.3100   -1.5854 O.2     1  UNL1       -0.2752
      8 C          -2.0122   -4.2933   -0.5262 C.3     1  UNL1        0.0493
      9 C          -2.8513   -4.9490   -1.5924 C.ar    1  UNL1       -0.0386
     10 C          -4.1902   -5.2025   -1.3597 C.ar    1  UNL1       -0.0576
     11 C          -4.9599   -5.8040   -2.3377 C.ar    1  UNL1       -0.0499
     12 C          -4.3909   -6.1517   -3.5486 C.ar    1  UNL1        0.0548
     13 C          -5.2300   -6.8079   -4.6147 C.3     1  UNL1        0.4174
     14 F          -5.7997   -5.8247   -5.4308 F       1  UNL1       -0.1659
     15 F          -4.4245   -7.6486   -5.3904 F       1  UNL1       -0.1659
     16 F          -6.2447   -7.5595   -4.0126 F       1  UNL1       -0.1659
     17 C          -3.0524   -5.8969   -3.7819 C.ar    1  UNL1       -0.0499
     18 C          -2.2836   -5.2919   -2.8053 C.ar    1  UNL1       -0.0576
     19 C          -0.5868   -2.5674    1.2484 C.3     1  UNL1        0.0273
     20 C           0.8172   -1.9564    1.1876 C.3     1  UNL1        0.0120
     21 N           0.7114   -0.4912    1.1926 N.3     1  UNL1       -0.3105
     22 H           1.0039    1.9031    0.0027 H       1  UNL1        0.0245
     23 H          -0.5459    1.8868   -0.8726 H       1  UNL1        0.0245
     24 H          -0.5289    1.8773    0.9072 H       1  UNL1        0.0245
     25 H          -1.9787   -0.1014    0.8537 H       1  UNL1        0.0480
     26 H          -1.9305   -0.2729   -0.9207 H       1  UNL1        0.0480
     27 H          -0.9793   -4.6288   -0.6192 H       1  UNL1        0.0407
     28 H          -2.3956   -4.5661    0.4570 H       1  UNL1        0.0407
     29 H          -4.6347   -4.9309   -0.4136 H       1  UNL1        0.0621
     30 H          -6.0057   -6.0027   -2.1556 H       1  UNL1        0.0623
     31 H          -2.6080   -6.1682   -4.7281 H       1  UNL1        0.0623
     32 H          -1.2379   -5.0929   -2.9875 H       1  UNL1        0.0621
     33 H          -1.0487   -2.3291    2.2065 H       1  UNL1        0.0477
     34 H          -0.5210   -3.6488    1.1294 H       1  UNL1        0.0477
     35 H           1.3935   -2.2824    2.0534 H       1  UNL1        0.0439
     36 H           1.3161   -2.2815    0.2746 H       1  UNL1        0.0439
     37 H           1.6216   -0.0632    1.2722 H       1  UNL1        0.1223
@<TRIPOS>BOND
     1     1     2    1
     2     1    22    1
     3     1    23    1
     4     1    24    1
     5     2     3    1
     6     2    21    1
     7     2     4    1
     8     4     5    1
     9     4    25    1
    10     4    26    1
    11     5     6   am
    12     5    19    1
    13     6     7    2
    14     6     8    1
    15     8     9    1
    16     8    27    1
    17     8    28    1
    18     9    18   ar
    19     9    10   ar
    20    10    11   ar
    21    10    29    1
    22    11    12   ar
    23    11    30    1
    24    12    13    1
    25    12    17   ar
    26    13    14    1
    27    13    15    1
    28    13    16    1
    29    17    18   ar
    30    17    31    1
    31    18    32    1
    32    19    20    1
    33    19    33    1
    34    19    34    1
    35    20    21    1
    36    20    35    1
    37    20    36    1
    38    21    37    1
