@<TRIPOS>MOLECULE
ZINC000025394054
 47 48 0 0 0
SMALL
GASTEIGER

@<TRIPOS>ATOM
      1 C          -0.0187    1.5258    0.0104 C.3     1  UNL1       -0.0507
      2 C           0.0021   -0.0041    0.0020 C.3     1  UNL1        0.0177
      3 N           0.7106   -0.4894    1.1889 N.3     1  UNL1       -0.1771
      4 C          -0.0062   -0.6460    2.4569 C.3     1  UNL1        0.0177
      5 C          -0.6935   -2.0126    2.4888 C.3     1  UNL1       -0.0507
      6 S           2.3218   -0.8609    1.0971 S.O2    1  UNL1        0.0608
      7 O           2.5823   -1.7795    2.1496 O.2     1  UNL1       -0.1528
      8 O           2.5905   -1.1471   -0.2686 O.2     1  UNL1       -0.1528
      9 C           3.2182    0.6060    1.4837 C.ar    1  UNL1        0.1055
     10 C           3.5687    1.4871    0.4779 C.ar    1  UNL1       -0.0350
     11 C           4.2720    2.6379    0.7812 C.ar    1  UNL1       -0.0552
     12 C           4.6242    2.9079    2.0903 C.ar    1  UNL1       -0.0302
     13 C           5.3913    4.1622    2.4209 C.3     1  UNL1        0.0369
     14 N           4.4509    5.2483    2.7077 N.am    1  UNL1       -0.3091
     15 C           4.9134    6.4725    3.0304 C.2     1  UNL1        0.2422
     16 O           6.1080    6.6748    3.0834 O.2     1  UNL1       -0.2730
     17 C           3.9461    7.5897    3.3255 C.3     1  UNL1        0.1344
     18 H           3.2615    7.7275    2.4886 H       1  UNL1        0.0693
     19 C           3.1551    7.2876    4.6231 C.3     1  UNL1       -0.0159
     20 C           2.7646    8.7225    5.0712 C.3     1  UNL1       -0.0266
     21 C           3.9865    9.5508    4.6191 C.3     1  UNL1        0.0487
     22 O           4.6583    8.8082    3.5929 O.3     1  UNL1       -0.3674
     23 C           4.2724    2.0275    3.0963 C.ar    1  UNL1       -0.0552
     24 C           3.5659    0.8785    2.7936 C.ar    1  UNL1       -0.0350
     25 H           1.0039    1.9031    0.0027 H       1  UNL1        0.0243
     26 H          -0.5459    1.8868   -0.8726 H       1  UNL1        0.0243
     27 H          -0.5289    1.8773    0.9072 H       1  UNL1        0.0243
     28 H          -1.0205   -0.3814    0.0098 H       1  UNL1        0.0441
     29 H           0.5123   -0.3556   -0.8948 H       1  UNL1        0.0441
     30 H           0.6997   -0.5749    3.2845 H       1  UNL1        0.0441
     31 H          -0.7557    0.1399    2.5501 H       1  UNL1        0.0441
     32 H          -1.3993   -2.0837    1.6613 H       1  UNL1        0.0243
     33 H           0.0560   -2.7985    2.3957 H       1  UNL1        0.0243
     34 H          -1.2268   -2.1291    3.4323 H       1  UNL1        0.0243
     35 H           3.2935    1.2761   -0.5449 H       1  UNL1        0.0637
     36 H           4.5465    3.3259   -0.0048 H       1  UNL1        0.0621
     37 H           6.0188    3.9848    3.2943 H       1  UNL1        0.0512
     38 H           6.0182    4.4388    1.5732 H       1  UNL1        0.0512
     39 H           3.4955    5.0865    2.6654 H       1  UNL1        0.1491
     40 H           2.2700    6.6872    4.4129 H       1  UNL1        0.0296
     41 H           3.7890    6.8030    5.3658 H       1  UNL1        0.0296
     42 H           1.8603    9.0553    4.5617 H       1  UNL1        0.0288
     43 H           2.6419    8.7711    6.1532 H       1  UNL1        0.0288
     44 H           3.6562   10.5109    4.2227 H       1  UNL1        0.0560
     45 H           4.6585    9.7091    5.4626 H       1  UNL1        0.0560
     46 H           4.5473    2.2386    4.1192 H       1  UNL1        0.0621
     47 H           3.2910    0.1907    3.5795 H       1  UNL1        0.0637
@<TRIPOS>BOND
     1     1     2    1
     2     1    25    1
     3     1    26    1
     4     1    27    1
     5     2     3    1
     6     2    28    1
     7     2    29    1
     8     3     4    1
     9     6     3    1
    10     4     5    1
    11     4    30    1
    12     4    31    1
    13     5    32    1
    14     5    33    1
    15     5    34    1
    16     6     7    2
    17     6     8    2
    18     6     9    1
    19     9    24   ar
    20     9    10   ar
    21    10    11   ar
    22    10    35    1
    23    11    12   ar
    24    11    36    1
    25    12    13    1
    26    12    23   ar
    27    13    14    1
    28    13    37    1
    29    13    38    1
    30    14    15   am
    31    14    39    1
    32    15    16    2
    33    15    17    1
    34    17    18    1
    35    17    22    1
    36    17    19    1
    37    19    20    1
    38    19    40    1
    39    19    41    1
    40    20    21    1
    41    20    42    1
    42    20    43    1
    43    21    22    1
    44    21    44    1
    45    21    45    1
    46    23    24   ar
    47    23    46    1
    48    24    47    1
