@<TRIPOS>MOLECULE
ZINC000016576829
 56 58 0 0 0
SMALL
GASTEIGER

@<TRIPOS>ATOM
      1 C          -0.0187    1.5258    0.0104 C.3     1  UNL1       -0.0425
      2 C           0.0021   -0.0041    0.0020 C.3     1  UNL1        0.0456
      3 H           0.5123   -0.3556   -0.8948 H       1  UNL1        0.0545
      4 N           0.7106   -0.4894    1.1889 N.am    1  UNL1       -0.3077
      5 C           2.0538   -0.5998    1.1737 C.2     1  UNL1        0.2293
      6 O           2.6758   -0.2974    0.1774 O.2     1  UNL1       -0.2743
      7 C           2.7826   -1.0990    2.3946 C.3     1  UNL1        0.0968
      8 N           4.2226   -1.1273    2.1261 N.3     1  UNL1       -0.1675
      9 C           5.0266    0.0829    2.3137 C.3     1  UNL1        0.0250
     10 C           5.4506    0.1913    3.7798 C.3     1  UNL1       -0.0132
     11 C           6.2777    1.4362    3.9727 C.ar    1  UNL1       -0.0461
     12 C           7.6500    1.3858    3.8143 C.ar    1  UNL1       -0.0585
     13 C           8.4086    2.5277    3.9913 C.ar    1  UNL1       -0.0615
     14 C           7.7949    3.7202    4.3263 C.ar    1  UNL1       -0.0617
     15 C           6.4225    3.7709    4.4838 C.ar    1  UNL1       -0.0615
     16 C           5.6634    2.6299    4.3026 C.ar    1  UNL1       -0.0585
     17 S           4.9414   -2.5273    1.6107 S.O2    1  UNL1        0.0613
     18 O           6.2767   -2.4948    2.0956 O.2     1  UNL1       -0.1528
     19 O           4.0321   -3.5781    1.9076 O.2     1  UNL1       -0.1528
     20 C           5.0478   -2.4428   -0.1461 C.ar    1  UNL1        0.1055
     21 C           4.0119   -2.9234   -0.9251 C.ar    1  UNL1       -0.0353
     22 C           4.0953   -2.8572   -2.3033 C.ar    1  UNL1       -0.0599
     23 C           5.2144   -2.3099   -2.9025 C.ar    1  UNL1       -0.0616
     24 C           6.2499   -1.8285   -2.1235 C.ar    1  UNL1       -0.0599
     25 C           6.1646   -1.8908   -0.7451 C.ar    1  UNL1       -0.0353
     26 C          -1.4117   -0.5257    0.0127 C.ar    1  UNL1       -0.0275
     27 C          -2.1228   -0.5709    1.1973 C.ar    1  UNL1       -0.0568
     28 C          -3.4197   -1.0494    1.2071 C.ar    1  UNL1       -0.0614
     29 C          -4.0056   -1.4822    0.0323 C.ar    1  UNL1       -0.0617
     30 C          -3.2949   -1.4361   -1.1525 C.ar    1  UNL1       -0.0614
     31 C          -1.9995   -0.9536   -1.1630 C.ar    1  UNL1       -0.0568
     32 H           1.0039    1.9031    0.0027 H       1  UNL1        0.0251
     33 H          -0.5459    1.8868   -0.8726 H       1  UNL1        0.0251
     34 H          -0.5289    1.8773    0.9072 H       1  UNL1        0.0251
     35 H           0.2131   -0.7312    1.9857 H       1  UNL1        0.1493
     36 H           2.5826   -0.4337    3.2345 H       1  UNL1        0.0539
     37 H           2.4385   -2.1044    2.6374 H       1  UNL1        0.0539
     38 H           5.9132    0.0316    1.6818 H       1  UNL1        0.0447
     39 H           4.4360    0.9574    2.0407 H       1  UNL1        0.0447
     40 H           4.5640    0.2426    4.4117 H       1  UNL1        0.0326
     41 H           6.0413   -0.6832    4.0528 H       1  UNL1        0.0326
     42 H           8.1295    0.4541    3.5526 H       1  UNL1        0.0620
     43 H           9.4809    2.4882    3.8682 H       1  UNL1        0.0618
     44 H           8.3877    4.6122    4.4652 H       1  UNL1        0.0618
     45 H           5.9431    4.7025    4.7458 H       1  UNL1        0.0618
     46 H           4.5912    2.6694    4.4256 H       1  UNL1        0.0620
     47 H           3.1376   -3.3510   -0.4570 H       1  UNL1        0.0637
     48 H           3.2863   -3.2333   -2.9120 H       1  UNL1        0.0618
     49 H           5.2799   -2.2588   -3.9793 H       1  UNL1        0.0618
     50 H           7.1243   -1.4012   -2.5916 H       1  UNL1        0.0618
     51 H           6.9735   -1.5147   -0.1365 H       1  UNL1        0.0637
     52 H          -1.6650   -0.2328    2.1152 H       1  UNL1        0.0621
     53 H          -3.9750   -1.0854    2.1327 H       1  UNL1        0.0618
     54 H          -5.0186   -1.8567    0.0401 H       1  UNL1        0.0618
     55 H          -3.7525   -1.7745   -2.0703 H       1  UNL1        0.0618
     56 H          -1.4442   -0.9176   -2.0886 H       1  UNL1        0.0621
@<TRIPOS>BOND
     1     1     2    1
     2     1    32    1
     3     1    33    1
     4     1    34    1
     5     2     3    1
     6     2     4    1
     7     2    26    1
     8     4     5   am
     9     4    35    1
    10     5     6    2
    11     5     7    1
    12     7     8    1
    13     7    36    1
    14     7    37    1
    15     8     9    1
    16    17     8    1
    17     9    10    1
    18     9    38    1
    19     9    39    1
    20    10    11    1
    21    10    40    1
    22    10    41    1
    23    11    16   ar
    24    11    12   ar
    25    12    13   ar
    26    12    42    1
    27    13    14   ar
    28    13    43    1
    29    14    15   ar
    30    14    44    1
    31    15    16   ar
    32    15    45    1
    33    16    46    1
    34    17    18    2
    35    17    19    2
    36    17    20    1
    37    20    25   ar
    38    20    21   ar
    39    21    22   ar
    40    21    47    1
    41    22    23   ar
    42    22    48    1
    43    23    24   ar
    44    23    49    1
    45    24    25   ar
    46    24    50    1
    47    25    51    1
    48    26    31   ar
    49    26    27   ar
    50    27    28   ar
    51    27    52    1
    52    28    29   ar
    53    28    53    1
    54    29    30   ar
    55    29    54    1
    56    30    31   ar
    57    30    55    1
    58    31    56    1
