@<TRIPOS>MOLECULE
ZINC000096025322
 36 37 0 0 0
SMALL
GASTEIGER

@<TRIPOS>ATOM
      1 C          -0.0225    1.8097    0.0120 C.3     1  UNL1        0.0548
      2 S           0.0021   -0.0041    0.0020 S.O2    1  UNL1       -0.0297
      3 O           0.8010   -0.4520    1.0884 O.2     1  UNL1       -0.1743
      4 O          -1.3336   -0.4743   -0.1172 O.2     1  UNL1       -0.1743
      5 C           0.8798   -0.3584   -1.5454 C.3     1  UNL1        0.0920
      6 H           0.3481    0.0693   -2.3954 H       1  UNL1        0.0549
      7 C           2.3360    0.1736   -1.4848 C.3     1  UNL1       -0.0150
      8 C           3.0526   -0.7667   -2.4858 C.3     1  UNL1        0.0223
      9 N           2.4180   -2.0826   -2.2879 N.3     1  UNL1       -0.1747
     10 S           3.1052   -3.5480   -2.6386 S.O2    1  UNL1        0.0609
     11 O           2.0316   -4.4590   -2.8301 O.2     1  UNL1       -0.1528
     12 O           4.0990   -3.2998   -3.6234 O.2     1  UNL1       -0.1528
     13 C           3.9595   -4.0826   -1.1933 C.ar    1  UNL1        0.1055
     14 C           5.2833   -3.7323   -1.0036 C.ar    1  UNL1       -0.0348
     15 C           5.9535   -4.1518    0.1303 C.ar    1  UNL1       -0.0483
     16 C           5.3000   -4.9211    1.0747 C.ar    1  UNL1        0.0549
     17 C           6.0308   -5.3787    2.3106 C.3     1  UNL1        0.4174
     18 F           5.8779   -4.4252    3.3228 F       1  UNL1       -0.1659
     19 F           5.5031   -6.6017    2.7384 F       1  UNL1       -0.1659
     20 F           7.3900   -5.5342    2.0179 F       1  UNL1       -0.1659
     21 C           3.9759   -5.2702    0.8857 C.ar    1  UNL1       -0.0483
     22 C           3.3045   -4.8475   -0.2464 C.ar    1  UNL1       -0.0348
     23 C           1.0702   -1.8788   -1.7294 C.3     1  UNL1        0.0427
     24 H           1.0001    2.1870    0.0043 H       1  UNL1        0.0464
     25 H          -0.5497    2.1708   -0.8711 H       1  UNL1        0.0464
     26 H          -0.5327    2.1613    0.9088 H       1  UNL1        0.0464
     27 H           2.3874    1.2104   -1.8174 H       1  UNL1        0.0297
     28 H           2.7500    0.0656   -0.4823 H       1  UNL1        0.0297
     29 H           2.8985   -0.4211   -3.5079 H       1  UNL1        0.0444
     30 H           4.1175   -0.8212   -2.2594 H       1  UNL1        0.0444
     31 H           5.7939   -3.1313   -1.7414 H       1  UNL1        0.0637
     32 H           6.9879   -3.8787    0.2782 H       1  UNL1        0.0624
     33 H           3.4651   -5.8709    1.6237 H       1  UNL1        0.0624
     34 H           2.2700   -5.1203   -0.3940 H       1  UNL1        0.0637
     35 H           0.9891   -2.3796   -0.7646 H       1  UNL1        0.0463
     36 H           0.3208   -2.2707   -2.4170 H       1  UNL1        0.0463
@<TRIPOS>BOND
     1     1     2    1
     2     1    24    1
     3     1    25    1
     4     1    26    1
     5     2     3    2
     6     2     4    2
     7     2     5    1
     8     5     6    1
     9     5    23    1
    10     5     7    1
    11     7     8    1
    12     7    27    1
    13     7    28    1
    14     8     9    1
    15     8    29    1
    16     8    30    1
    17    10     9    1
    18     9    23    1
    19    10    11    2
    20    10    12    2
    21    10    13    1
    22    13    22   ar
    23    13    14   ar
    24    14    15   ar
    25    14    31    1
    26    15    16   ar
    27    15    32    1
    28    16    17    1
    29    16    21   ar
    30    17    18    1
    31    17    19    1
    32    17    20    1
    33    21    22   ar
    34    21    33    1
    35    22    34    1
    36    23    35    1
    37    23    36    1
