@<TRIPOS>MOLECULE
ZINC000000378813
 35 36 0 0 0
SMALL
GASTEIGER

@<TRIPOS>ATOM
      1 O           0.0021   -0.0041    0.0020 O.co2   1  UNL1       -0.2461
      2 C          -0.0145    1.2150    0.0087 C.2     1  UNL1        0.3591
      3 O           1.0330    1.8389    0.0021 O.co2   1  UNL1       -0.2461
      4 C          -1.3296    1.9507    0.0190 C.3     1  UNL1        0.0631
      5 C          -2.3817    1.1043    0.7394 C.3     1  UNL1       -0.0254
      6 C          -3.7253    1.8398    0.7175 C.3     1  UNL1        0.0213
      7 N          -3.5389    3.1822    1.2850 N.3     1  UNL1       -0.1765
      8 S          -4.4916    3.7108    2.5321 S.O2    1  UNL1        0.0609
      9 O          -4.4698    5.1307    2.4798 O.2     1  UNL1       -0.1528
     10 O          -5.6897    2.9491    2.4725 O.2     1  UNL1       -0.1528
     11 C          -3.6869    3.2558    4.0322 C.ar    1  UNL1        0.1055
     12 C          -3.9513    2.0301    4.6141 C.ar    1  UNL1       -0.0348
     13 C          -3.3200    1.6732    5.7910 C.ar    1  UNL1       -0.0483
     14 C          -2.4240    2.5418    6.3856 C.ar    1  UNL1        0.0549
     15 C          -1.7361    2.1528    7.6688 C.3     1  UNL1        0.4174
     16 F          -0.5393    1.4909    7.3743 F       1  UNL1       -0.1659
     17 F          -1.4613    3.3022    8.4175 F       1  UNL1       -0.1659
     18 F          -2.5692    1.3043    8.4059 F       1  UNL1       -0.1659
     19 C          -2.1585    3.7669    5.8029 C.ar    1  UNL1       -0.0483
     20 C          -2.7869    4.1222    4.6241 C.ar    1  UNL1       -0.0348
     21 C          -2.4909    4.0465    0.7252 C.3     1  UNL1        0.0213
     22 C          -1.1611    3.2863    0.7469 C.3     1  UNL1       -0.0254
     23 H          -1.6512    2.1340   -1.0063 H       1  UNL1        0.0416
     24 H          -2.4844    0.1440    0.2341 H       1  UNL1        0.0286
     25 H          -2.0728    0.9415    1.7719 H       1  UNL1        0.0286
     26 H          -4.0795    1.9234   -0.3099 H       1  UNL1        0.0444
     27 H          -4.4531    1.2890    1.3135 H       1  UNL1        0.0444
     28 H          -4.6514    1.3515    4.1495 H       1  UNL1        0.0637
     29 H          -3.5271    0.7159    6.2460 H       1  UNL1        0.0624
     30 H          -1.4582    4.4453    6.2673 H       1  UNL1        0.0624
     31 H          -2.5796    5.0794    4.1688 H       1  UNL1        0.0637
     32 H          -2.7444    4.3100   -0.3016 H       1  UNL1        0.0444
     33 H          -2.4042    4.9517    1.3261 H       1  UNL1        0.0444
     34 H          -0.8637    3.1029    1.7794 H       1  UNL1        0.0286
     35 H          -0.3950    3.8790    0.2470 H       1  UNL1        0.0286
@<TRIPOS>BOND
     1     1     2   ar
     2     2     3   ar
     3     2     4    1
     4     4    22    1
     5     4     5    1
     6     4    23    1
     7     5     6    1
     8     5    24    1
     9     5    25    1
    10     6     7    1
    11     6    26    1
    12     6    27    1
    13     8     7    1
    14     7    21    1
    15     8     9    2
    16     8    10    2
    17     8    11    1
    18    11    20   ar
    19    11    12   ar
    20    12    13   ar
    21    12    28    1
    22    13    14   ar
    23    13    29    1
    24    14    15    1
    25    14    19   ar
    26    15    16    1
    27    15    17    1
    28    15    18    1
    29    19    20   ar
    30    19    30    1
    31    20    31    1
    32    21    22    1
    33    21    32    1
    34    21    33    1
    35    22    34    1
    36    22    35    1
