@<TRIPOS>MOLECULE
ZINC000012766454
 58 59 0 0 0
SMALL
GASTEIGER

@<TRIPOS>ATOM
      1 C          -0.1010   -0.2975   -0.7294 C.3     1  UNL1       -0.0613
      2 C          -0.5853   -1.6577   -0.2231 C.3     1  UNL1       -0.0305
      3 C           0.1848   -2.0356    1.0159 C.ar    1  UNL1       -0.0475
      4 C           1.3638   -2.7496    0.9044 C.ar    1  UNL1       -0.0568
      5 C           2.0720   -3.0976    2.0378 C.ar    1  UNL1       -0.0406
      6 C           1.5987   -2.7297    3.2909 C.ar    1  UNL1        0.0275
      7 N           2.3126   -3.0796    4.4392 N.pl3   1  UNL1       -0.3354
      8 C           1.8120   -2.6907    5.7600 C.3     1  UNL1        0.0861
      9 C           2.7593   -3.1862    6.8222 C.2     1  UNL1        0.2344
     10 O           3.7547   -3.8034    6.5069 O.2     1  UNL1       -0.2737
     11 N           2.5004   -2.9434    8.1224 N.am    1  UNL1       -0.2812
     12 C           3.3298   -3.4830    9.1145 C.ar    1  UNL1        0.0775
     13 C           4.6907   -3.6188    8.8849 C.ar    1  UNL1       -0.0105
     14 C           5.5070   -4.1515    9.8652 C.ar    1  UNL1        0.1075
     15 S           7.2358   -4.3232    9.5716 S.O2    1  UNL1        0.0609
     16 O           7.6915   -5.3467   10.4457 O.2     1  UNL1       -0.1528
     17 O           7.4001   -4.3756    8.1611 O.2     1  UNL1       -0.1528
     18 N           7.9601   -2.9216   10.0750 N.3     1  UNL1       -0.1771
     19 C           8.4284   -2.7946   11.4573 C.3     1  UNL1        0.0177
     20 C           9.9131   -3.1573   11.5281 C.3     1  UNL1       -0.0507
     21 C           8.1325   -1.8088    9.1379 C.3     1  UNL1        0.0177
     22 C           6.9661   -0.8301    9.2883 C.3     1  UNL1       -0.0507
     23 C           4.9703   -4.5494   11.0754 C.ar    1  UNL1       -0.0318
     24 C           3.6141   -4.4175   11.3114 C.ar    1  UNL1       -0.0163
     25 C           2.7903   -3.8794   10.3365 C.ar    1  UNL1        0.1413
     26 O           1.4567   -3.7487   10.5672 O.3     1  UNL1       -0.4933
     27 C           0.9721   -4.1871   11.8381 C.3     1  UNL1        0.0789
     28 C           0.4139   -2.0125    3.3993 C.ar    1  UNL1       -0.0406
     29 C          -0.2863   -1.6629    2.2615 C.ar    1  UNL1       -0.0568
     30 H           0.9615   -0.3550   -0.9655 H       1  UNL1        0.0233
     31 H          -0.6580   -0.0241   -1.6256 H       1  UNL1        0.0233
     32 H          -0.2616    0.4556    0.0420 H       1  UNL1        0.0233
     33 H          -1.6479   -1.6002    0.0129 H       1  UNL1        0.0311
     34 H          -0.4247   -2.4107   -0.9946 H       1  UNL1        0.0311
     35 H           1.7310   -3.0356   -0.0701 H       1  UNL1        0.0621
     36 H           2.9926   -3.6555    1.9500 H       1  UNL1        0.0636
     37 H           3.1400   -3.5801    4.3623 H       1  UNL1        0.1466
     38 H           1.7395   -1.6046    5.8157 H       1  UNL1        0.0557
     39 H           0.8268   -3.1292    5.9186 H       1  UNL1        0.0557
     40 H           1.7399   -2.3951    8.3713 H       1  UNL1        0.1550
     41 H           5.1127   -3.3088    7.9403 H       1  UNL1        0.0657
     42 H           8.2887   -1.7678   11.7953 H       1  UNL1        0.0441
     43 H           7.8588   -3.4685   12.0972 H       1  UNL1        0.0441
     44 H          10.0528   -4.1841   11.1901 H       1  UNL1        0.0243
     45 H          10.4827   -2.4834   10.8881 H       1  UNL1        0.0243
     46 H          10.2616   -3.0628   12.5566 H       1  UNL1        0.0243
     47 H           9.0688   -1.2940    9.3535 H       1  UNL1        0.0441
     48 H           8.1554   -2.1927    8.1181 H       1  UNL1        0.0441
     49 H           7.0944   -0.0021    8.5911 H       1  UNL1        0.0243
     50 H           6.0298   -1.3449    9.0727 H       1  UNL1        0.0243
     51 H           6.9431   -0.4461   10.3082 H       1  UNL1        0.0243
     52 H           5.6118   -4.9647   11.8385 H       1  UNL1        0.0638
     53 H           3.1979   -4.7297   12.2578 H       1  UNL1        0.0655
     54 H           1.1884   -5.2481   11.9631 H       1  UNL1        0.0660
     55 H           1.4631   -3.6205   12.6293 H       1  UNL1        0.0660
     56 H          -0.1048   -4.0271   11.8912 H       1  UNL1        0.0660
     57 H           0.0430   -1.7252    4.3721 H       1  UNL1        0.0636
     58 H          -1.2075   -1.1053    2.3451 H       1  UNL1        0.0621
@<TRIPOS>BOND
     1     1     2    1
     2     1    30    1
     3     1    31    1
     4     1    32    1
     5     2     3    1
     6     2    33    1
     7     2    34    1
     8     3    29   ar
     9     3     4   ar
    10     4     5   ar
    11     4    35    1
    12     5     6   ar
    13     5    36    1
    14     6     7    1
    15     6    28   ar
    16     7     8    1
    17     7    37    1
    18     8     9    1
    19     8    38    1
    20     8    39    1
    21     9    10    2
    22     9    11   am
    23    11    12    1
    24    11    40    1
    25    12    25   ar
    26    12    13   ar
    27    13    14   ar
    28    13    41    1
    29    14    15    1
    30    14    23   ar
    31    15    16    2
    32    15    17    2
    33    15    18    1
    34    18    19    1
    35    18    21    1
    36    19    20    1
    37    19    42    1
    38    19    43    1
    39    20    44    1
    40    20    45    1
    41    20    46    1
    42    21    22    1
    43    21    47    1
    44    21    48    1
    45    22    49    1
    46    22    50    1
    47    22    51    1
    48    23    24   ar
    49    23    52    1
    50    24    25   ar
    51    24    53    1
    52    25    26    1
    53    26    27    1
    54    27    54    1
    55    27    55    1
    56    27    56    1
    57    28    29   ar
    58    28    57    1
    59    29    58    1
