@<TRIPOS>MOLECULE
ZINC000223047573
 49 50 0 0 0
SMALL
GASTEIGER

@<TRIPOS>ATOM
      1 C           1.0659    0.8143    0.1039 C.3     1  UNL1       -0.0507
      2 C           0.2398   -0.3710    0.6076 C.3     1  UNL1        0.0177
      3 N          -0.4610    0.0093    1.8365 N.3     1  UNL1       -0.1771
      4 C          -1.7526    0.6966    1.7605 C.3     1  UNL1        0.0177
      5 C          -2.8721   -0.3363    1.6159 C.3     1  UNL1       -0.0507
      6 S           0.2068   -0.3376    3.3117 S.O2    1  UNL1        0.0608
      7 O          -0.8686   -0.3764    4.2398 O.2     1  UNL1       -0.1528
      8 O           1.0940   -1.4280    3.1041 O.2     1  UNL1       -0.1528
      9 C           1.2080    1.0387    3.7676 C.ar    1  UNL1        0.1055
     10 C           2.5394    1.0776    3.3977 C.ar    1  UNL1       -0.0351
     11 C           3.3249    2.1574    3.7553 C.ar    1  UNL1       -0.0567
     12 C           2.7790    3.1985    4.4826 C.ar    1  UNL1       -0.0468
     13 C           3.6355    4.3754    4.8730 C.3     1  UNL1       -0.0194
     14 C           3.5659    5.4421    3.7784 C.3     1  UNL1        0.0283
     15 C           4.4224    6.6190    4.1687 C.2     1  UNL1        0.2176
     16 O           5.0288    6.6059    5.2191 O.2     1  UNL1       -0.2755
     17 N           4.5146    7.6861    3.3507 N.am    1  UNL1       -0.2809
     18 C           5.2241    8.8237    3.7599 C.ar    1  UNL1        0.1046
     19 C           4.5760    9.8347    4.4597 C.ar    1  UNL1        0.1473
     20 F           3.2608    9.7224    4.7472 F       1  UNL1       -0.2034
     21 C           5.2797   10.9558    4.8618 C.ar    1  UNL1       -0.0244
     22 C           6.6258   11.0716    4.5680 C.ar    1  UNL1       -0.0562
     23 C           7.2740   10.0680    3.8720 C.ar    1  UNL1       -0.0244
     24 C           6.5787    8.9409    3.4719 C.ar    1  UNL1        0.1473
     25 F           7.2130    7.9606    2.7923 F       1  UNL1       -0.2034
     26 C           1.4473    3.1603    4.8514 C.ar    1  UNL1       -0.0567
     27 C           0.6608    2.0823    4.4904 C.ar    1  UNL1       -0.0351
     28 H           1.7935    1.0991    0.8638 H       1  UNL1        0.0243
     29 H           1.5873    0.5313   -0.8105 H       1  UNL1        0.0243
     30 H           0.4053    1.6568   -0.1005 H       1  UNL1        0.0243
     31 H          -0.4878   -0.6558   -0.1524 H       1  UNL1        0.0441
     32 H           0.9004   -1.2136    0.8119 H       1  UNL1        0.0441
     33 H          -1.9092    1.2773    2.6695 H       1  UNL1        0.0441
     34 H          -1.7594    1.3629    0.8979 H       1  UNL1        0.0441
     35 H          -2.8653   -1.0026    2.4785 H       1  UNL1        0.0243
     36 H          -3.8331    0.1750    1.5593 H       1  UNL1        0.0243
     37 H          -2.7155   -0.9170    0.7069 H       1  UNL1        0.0243
     38 H           2.9659    0.2642    2.8295 H       1  UNL1        0.0637
     39 H           4.3652    2.1874    3.4669 H       1  UNL1        0.0621
     40 H           3.2721    4.7937    5.8116 H       1  UNL1        0.0318
     41 H           4.6679    4.0483    4.9965 H       1  UNL1        0.0318
     42 H           3.9293    5.0238    2.8397 H       1  UNL1        0.0362
     43 H           2.5335    5.7692    3.6549 H       1  UNL1        0.0362
     44 H           4.0900    7.6670    2.4788 H       1  UNL1        0.1550
     45 H           4.7768   11.7418    5.4056 H       1  UNL1        0.0647
     46 H           7.1723   11.9484    4.8826 H       1  UNL1        0.0619
     47 H           8.3256   10.1621    3.6444 H       1  UNL1        0.0647
     48 H           1.0206    3.9738    5.4193 H       1  UNL1        0.0621
     49 H          -0.3797    2.0524    4.7785 H       1  UNL1        0.0637
@<TRIPOS>BOND
     1     1     2    1
     2     1    28    1
     3     1    29    1
     4     1    30    1
     5     2     3    1
     6     2    31    1
     7     2    32    1
     8     3     4    1
     9     6     3    1
    10     4     5    1
    11     4    33    1
    12     4    34    1
    13     5    35    1
    14     5    36    1
    15     5    37    1
    16     6     7    2
    17     6     8    2
    18     6     9    1
    19     9    27   ar
    20     9    10   ar
    21    10    11   ar
    22    10    38    1
    23    11    12   ar
    24    11    39    1
    25    12    13    1
    26    12    26   ar
    27    13    14    1
    28    13    40    1
    29    13    41    1
    30    14    15    1
    31    14    42    1
    32    14    43    1
    33    15    16    2
    34    15    17   am
    35    17    18    1
    36    17    44    1
    37    18    24   ar
    38    18    19   ar
    39    19    20    1
    40    19    21   ar
    41    21    22   ar
    42    21    45    1
    43    22    23   ar
    44    22    46    1
    45    23    24   ar
    46    23    47    1
    47    24    25    1
    48    26    27   ar
    49    26    48    1
    50    27    49    1
