@<TRIPOS>MOLECULE
ZINC000002869077
 46 48 0 0 0
SMALL
GASTEIGER

@<TRIPOS>ATOM
      1 C           1.0747   -1.5307    0.5621 C.3     1  UNL1       -0.0016
      2 C          -0.0940   -0.5794    0.5732 C.2     1  UNL1        0.1604
      3 O           0.0465    0.5506    0.9966 O.2     1  UNL1       -0.2925
      4 C          -1.3467   -0.9996    0.0938 C.2     1  UNL1        0.0526
      5 C          -1.6873   -2.2428   -0.3107 C.2     1  UNL1        0.0201
      6 C          -0.7414   -3.4160   -0.3111 C.3     1  UNL1       -0.0257
      7 N          -2.9834   -2.3126   -0.7176 N.am    1  UNL1       -0.2683
      8 C          -3.6205   -3.5378   -1.2069 C.3     1  UNL1        0.0446
      9 C          -4.2376   -4.2798   -0.0495 C.ar    1  UNL1       -0.0297
     10 C          -3.4945   -5.2138    0.6479 C.ar    1  UNL1       -0.0571
     11 C          -4.0606   -5.8944    1.7096 C.ar    1  UNL1       -0.0615
     12 C          -5.3696   -5.6407    2.0742 C.ar    1  UNL1       -0.0617
     13 C          -6.1125   -4.7061    1.3774 C.ar    1  UNL1       -0.0615
     14 C          -5.5450   -4.0224    0.3184 C.ar    1  UNL1       -0.0571
     15 C          -3.6139   -1.1272   -0.6193 C.2     1  UNL1        0.2571
     16 O          -4.7670   -0.8890   -0.9084 O.2     1  UNL1       -0.2722
     17 C          -2.5927   -0.1517   -0.0685 C.3     1  UNL1        0.2368
     18 N          -2.3490    0.9334   -1.0222 N.am    1  UNL1       -0.2905
     19 C          -3.3571    1.7511   -1.3847 C.2     1  UNL1        0.2173
     20 O          -4.4661    1.5887   -0.9215 O.2     1  UNL1       -0.2755
     21 C          -3.1063    2.8673   -2.3657 C.3     1  UNL1        0.0356
     22 C          -3.7492    2.7497   -3.7491 C.3     1  UNL1       -0.0412
     23 C          -4.2914    3.7610   -2.7370 C.3     1  UNL1       -0.0412
     24 C          -3.0533    0.4068    1.2794 C.3     1  UNL1        0.4237
     25 F          -3.0709   -0.6208    2.2285 F       1  UNL1       -0.1675
     26 F          -2.1710    1.4100    1.6945 F       1  UNL1       -0.1675
     27 F          -4.3392    0.9420    1.1476 F       1  UNL1       -0.1675
     28 H           1.9287   -1.0628    1.0520 H       1  UNL1        0.0309
     29 H           0.8057   -2.4431    1.0943 H       1  UNL1        0.0309
     30 H           1.3352   -1.7742   -0.4679 H       1  UNL1        0.0309
     31 H          -0.7280   -3.8723    0.6787 H       1  UNL1        0.0290
     32 H          -1.0733   -4.1501   -1.0452 H       1  UNL1        0.0290
     33 H           0.2614   -3.0740   -0.5670 H       1  UNL1        0.0290
     34 H          -4.3958   -3.2808   -1.9286 H       1  UNL1        0.0518
     35 H          -2.8727   -4.1696   -1.6863 H       1  UNL1        0.0518
     36 H          -2.4717   -5.4119    0.3631 H       1  UNL1        0.0621
     37 H          -3.4802   -6.6246    2.2540 H       1  UNL1        0.0618
     38 H          -5.8121   -6.1730    2.9032 H       1  UNL1        0.0618
     39 H          -7.1353   -4.5082    1.6620 H       1  UNL1        0.0618
     40 H          -6.1253   -3.2921   -0.2260 H       1  UNL1        0.0621
     41 H          -1.4620    1.0633   -1.3926 H       1  UNL1        0.1503
     42 H          -2.1233    3.3343   -2.3052 H       1  UNL1        0.0394
     43 H          -3.1890    3.1393   -4.5991 H       1  UNL1        0.0273
     44 H          -4.3535    1.8650   -3.9497 H       1  UNL1        0.0273
     45 H          -5.2524    3.5416   -2.2718 H       1  UNL1        0.0273
     46 H          -4.0879    4.8158   -2.9212 H       1  UNL1        0.0273
@<TRIPOS>BOND
     1     1     2    1
     2     1    28    1
     3     1    29    1
     4     1    30    1
     5     2     3    2
     6     2     4    1
     7     4    17    1
     8     4     5    2
     9     5     6    1
    10     5     7    1
    11     6    31    1
    12     6    32    1
    13     6    33    1
    14     7     8    1
    15     7    15   am
    16     8     9    1
    17     8    34    1
    18     8    35    1
    19     9    14   ar
    20     9    10   ar
    21    10    11   ar
    22    10    36    1
    23    11    12   ar
    24    11    37    1
    25    12    13   ar
    26    12    38    1
    27    13    14   ar
    28    13    39    1
    29    14    40    1
    30    15    16    2
    31    15    17    1
    32    17    18    1
    33    17    24    1
    34    18    19   am
    35    18    41    1
    36    19    20    2
    37    19    21    1
    38    21    23    1
    39    21    22    1
    40    21    42    1
    41    22    23    1
    42    22    43    1
    43    22    44    1
    44    23    45    1
    45    23    46    1
    46    24    25    1
    47    24    26    1
    48    24    27    1
