@<TRIPOS>MOLECULE
ZINC000047267022
 44 46 0 0 0
SMALL
GASTEIGER

@<TRIPOS>ATOM
      1 O           0.0994    0.1183   -0.3166 O.2     1  UNL1       -0.2758
      2 C           0.0497    1.3185   -0.1490 C.2     1  UNL1        0.2149
      3 C          -1.2997    1.9701   -0.1061 C.3     1  UNL1        0.0452
      4 C          -1.4264    2.8288    1.1569 C.3     1  UNL1        0.0650
      5 H          -0.8576    2.3777    1.9699 H       1  UNL1        0.0534
      6 C          -2.8760    2.9480    1.5514 C.ar    1  UNL1       -0.0282
      7 C          -3.7895    3.4950    0.6698 C.ar    1  UNL1       -0.0570
      8 C          -5.1192    3.6043    1.0317 C.ar    1  UNL1       -0.0615
      9 C          -5.5354    3.1663    2.2750 C.ar    1  UNL1       -0.0617
     10 C          -4.6220    2.6185    3.1562 C.ar    1  UNL1       -0.0615
     11 C          -3.2931    2.5052    2.7927 C.ar    1  UNL1       -0.0570
     12 N          -0.8840    4.1527    0.8451 N.3     1  UNL1       -0.1673
     13 S          -1.4893    5.5129    1.5701 S.O2    1  UNL1        0.0614
     14 O          -1.3455    6.5673    0.6284 O.2     1  UNL1       -0.1528
     15 O          -2.7383    5.1429    2.1378 O.2     1  UNL1       -0.1528
     16 C          -0.4252    5.9023    2.9194 C.ar    1  UNL1        0.1055
     17 C          -0.6717    5.3683    4.1704 C.ar    1  UNL1       -0.0348
     18 C           0.1632    5.6737    5.2290 C.ar    1  UNL1       -0.0483
     19 C           1.2447    6.5128    5.0365 C.ar    1  UNL1        0.0549
     20 C           2.1545    6.8463    6.1907 C.3     1  UNL1        0.4174
     21 F           3.1910    5.9088    6.2533 F       1  UNL1       -0.1659
     22 F           2.6924    8.1245    6.0063 F       1  UNL1       -0.1659
     23 F           1.4248    6.8150    7.3838 F       1  UNL1       -0.1659
     24 C           1.4919    7.0458    3.7852 C.ar    1  UNL1       -0.0483
     25 C           0.6593    6.7372    2.7257 C.ar    1  UNL1       -0.0348
     26 C           0.2174    4.2407   -0.1328 C.3     1  UNL1        0.0367
     27 C           1.3748    3.3706    0.3671 C.3     1  UNL1        0.0260
     28 N           1.1925    1.9778   -0.0090 N.am    1  UNL1       -0.3140
     29 H          -1.4252    2.6005   -0.9863 H       1  UNL1        0.0378
     30 H          -2.0726    1.2015   -0.1001 H       1  UNL1        0.0378
     31 H          -3.4643    3.8372   -0.3015 H       1  UNL1        0.0621
     32 H          -5.8327    4.0323    0.3432 H       1  UNL1        0.0618
     33 H          -6.5741    3.2524    2.5580 H       1  UNL1        0.0618
     34 H          -4.9472    2.2765    4.1277 H       1  UNL1        0.0618
     35 H          -2.5796    2.0772    3.4812 H       1  UNL1        0.0621
     36 H          -1.5166    4.7127    4.3208 H       1  UNL1        0.0637
     37 H          -0.0298    5.2571    6.2065 H       1  UNL1        0.0624
     38 H           2.3371    7.7010    3.6347 H       1  UNL1        0.0624
     39 H           0.8525    7.1536    1.7481 H       1  UNL1        0.0637
     40 H          -0.1225    3.8781   -1.1028 H       1  UNL1        0.0459
     41 H           0.5477    5.2757   -0.2220 H       1  UNL1        0.0459
     42 H           2.3079    3.7383   -0.0598 H       1  UNL1        0.0475
     43 H           1.4293    3.4391    1.4536 H       1  UNL1        0.0475
     44 H           2.0016    1.4724   -0.1846 H       1  UNL1        0.1487
@<TRIPOS>BOND
     1     1     2    2
     2     2    28   am
     3     2     3    1
     4     3     4    1
     5     3    29    1
     6     3    30    1
     7     4     5    1
     8     4     6    1
     9     4    12    1
    10     6    11   ar
    11     6     7   ar
    12     7     8   ar
    13     7    31    1
    14     8     9   ar
    15     8    32    1
    16     9    10   ar
    17     9    33    1
    18    10    11   ar
    19    10    34    1
    20    11    35    1
    21    13    12    1
    22    12    26    1
    23    13    14    2
    24    13    15    2
    25    13    16    1
    26    16    25   ar
    27    16    17   ar
    28    17    18   ar
    29    17    36    1
    30    18    19   ar
    31    18    37    1
    32    19    20    1
    33    19    24   ar
    34    20    21    1
    35    20    22    1
    36    20    23    1
    37    24    25   ar
    38    24    38    1
    39    25    39    1
    40    26    27    1
    41    26    40    1
    42    26    41    1
    43    27    28    1
    44    27    42    1
    45    27    43    1
    46    28    44    1
