@<TRIPOS>MOLECULE
ZINC000028208096
 44 45 0 0 0
SMALL
GASTEIGER

@<TRIPOS>ATOM
      1 C          -0.0187    1.5258    0.0104 C.3     1  UNL1       -0.0507
      2 C           0.0021   -0.0041    0.0020 C.3     1  UNL1        0.0177
      3 N           0.6878   -0.4765   -1.2033 N.3     1  UNL1       -0.1771
      4 C           2.1478   -0.5966   -1.2159 C.3     1  UNL1        0.0177
      5 C           2.5532   -1.9514   -0.6319 C.3     1  UNL1       -0.0507
      6 S          -0.1875   -0.8749   -2.5515 S.O2    1  UNL1        0.0609
      7 O           0.6166   -1.7761   -3.3001 O.2     1  UNL1       -0.1528
      8 O          -1.4970   -1.1925   -2.1004 O.2     1  UNL1       -0.1528
      9 C          -0.3375    0.5853   -3.5262 C.ar    1  UNL1        0.1071
     10 C          -1.4061    1.4397   -3.3289 C.ar    1  UNL1       -0.0318
     11 C          -1.5264    2.5859   -4.0915 C.ar    1  UNL1       -0.0166
     12 C          -0.5738    2.8793   -5.0556 C.ar    1  UNL1        0.1395
     13 O          -0.6898    4.0063   -5.8064 O.3     1  UNL1       -0.4813
     14 C          -1.8185    4.8441   -5.5491 C.3     1  UNL1        0.1652
     15 C          -1.7795    6.0364   -6.4699 C.2     1  UNL1        0.2509
     16 O          -0.8743    6.1569   -7.2680 O.2     1  UNL1       -0.2721
     17 N          -2.7506    6.9688   -6.4066 N.am    1  UNL1       -0.3097
     18 C          -2.7127    8.1279   -7.3017 C.3     1  UNL1        0.0233
     19 C          -4.0237    8.5482   -7.9692 C.3     1  UNL1       -0.0328
     20 C          -3.4315    9.3983   -6.8433 C.3     1  UNL1       -0.0328
     21 C           0.4989    2.0198   -5.2522 C.ar    1  UNL1        0.0844
     22 CL          1.6938    2.3831   -6.4580 Cl      1  UNL1       -0.0797
     23 C           0.6171    0.8775   -4.4832 C.ar    1  UNL1       -0.0134
     24 H           1.0039    1.9031    0.0027 H       1  UNL1        0.0243
     25 H          -0.5459    1.8868   -0.8726 H       1  UNL1        0.0243
     26 H          -0.5289    1.8773    0.9072 H       1  UNL1        0.0243
     27 H           0.5293   -0.3651    0.8851 H       1  UNL1        0.0441
     28 H          -1.0205   -0.3814    0.0098 H       1  UNL1        0.0441
     29 H           2.5098   -0.5199   -2.2412 H       1  UNL1        0.0441
     30 H           2.5833    0.2026   -0.6162 H       1  UNL1        0.0441
     31 H           2.1912   -2.0280    0.3934 H       1  UNL1        0.0243
     32 H           2.1177   -2.7506   -1.2316 H       1  UNL1        0.0243
     33 H           3.6395   -2.0407   -0.6413 H       1  UNL1        0.0243
     34 H          -2.1482    1.2110   -2.5782 H       1  UNL1        0.0638
     35 H          -2.3618    3.2526   -3.9368 H       1  UNL1        0.0655
     36 H          -2.7358    4.2812   -5.7222 H       1  UNL1        0.0795
     37 H          -1.7905    5.1836   -4.5137 H       1  UNL1        0.0795
     38 H          -3.4746    6.8724   -5.7683 H       1  UNL1        0.1491
     39 H          -1.7940    8.2487   -7.8757 H       1  UNL1        0.0498
     40 H          -3.9677    8.9456   -8.9826 H       1  UNL1        0.0284
     41 H          -4.9144    7.9624   -7.7422 H       1  UNL1        0.0284
     42 H          -3.9327    9.3718   -5.8757 H       1  UNL1        0.0284
     43 H          -2.9859   10.3550   -7.1161 H       1  UNL1        0.0284
     44 H           1.4512    0.2085   -4.6351 H       1  UNL1        0.0653
@<TRIPOS>BOND
     1     1     2    1
     2     1    24    1
     3     1    25    1
     4     1    26    1
     5     2     3    1
     6     2    27    1
     7     2    28    1
     8     3     4    1
     9     6     3    1
    10     4     5    1
    11     4    29    1
    12     4    30    1
    13     5    31    1
    14     5    32    1
    15     5    33    1
    16     6     7    2
    17     6     8    2
    18     6     9    1
    19     9    23   ar
    20     9    10   ar
    21    10    11   ar
    22    10    34    1
    23    11    12   ar
    24    11    35    1
    25    12    13    1
    26    12    21   ar
    27    13    14    1
    28    14    15    1
    29    14    36    1
    30    14    37    1
    31    15    16    2
    32    15    17   am
    33    17    18    1
    34    17    38    1
    35    18    20    1
    36    18    19    1
    37    18    39    1
    38    19    20    1
    39    19    40    1
    40    19    41    1
    41    20    42    1
    42    20    43    1
    43    21    22    1
    44    21    23   ar
    45    23    44    1
