@<TRIPOS>MOLECULE
ZINC000000166218
 32 33 0 0 0
SMALL
GASTEIGER

@<TRIPOS>ATOM
      1 O           0.0021   -0.0041    0.0020 O.co2   1  UNL1       -0.2445
      2 C          -0.0145    1.2150    0.0087 C.2     1  UNL1        0.3745
      3 O           1.0330    1.8389    0.0021 O.co2   1  UNL1       -0.2445
      4 C          -1.3296    1.9507    0.0190 C.3     1  UNL1        0.1328
      5 H          -1.9757    1.5440    0.7970 H       1  UNL1        0.0597
      6 C          -2.0165    1.8171   -1.3565 C.3     1  UNL1       -0.0240
      7 C          -2.6464    3.2192   -1.5681 C.3     1  UNL1       -0.0365
      8 C          -1.5848    4.1389   -0.9148 C.3     1  UNL1        0.0215
      9 N          -1.0996    3.3830    0.2582 N.3     1  UNL1       -0.1627
     10 S          -0.4105    4.0409    1.6127 S.O2    1  UNL1        0.0616
     11 O           0.3798    3.0158    2.1992 O.2     1  UNL1       -0.1528
     12 O           0.1166    5.3016    1.2228 O.2     1  UNL1       -0.1528
     13 C          -1.7136    4.3767    2.7502 C.ar    1  UNL1        0.1060
     14 C          -2.3545    5.6009    2.7251 C.ar    1  UNL1       -0.0353
     15 C          -3.3769    5.8644    3.6176 C.ar    1  UNL1       -0.0594
     16 C          -3.7585    4.9033    4.5347 C.ar    1  UNL1       -0.0500
     17 C          -3.1180    3.6784    4.5593 C.ar    1  UNL1        0.0567
     18 C          -3.5336    2.6307    5.5596 C.3     1  UNL1        0.4175
     19 F          -4.5779    3.1265    6.3475 F       1  UNL1       -0.1659
     20 F          -3.9639    1.4844    4.8828 F       1  UNL1       -0.1659
     21 F          -2.4450    2.3085    6.3771 F       1  UNL1       -0.1659
     22 C          -2.0987    3.4134    3.6642 C.ar    1  UNL1       -0.0237
     23 H          -1.2836    1.6022   -2.1343 H       1  UNL1        0.0287
     24 H          -2.7882    1.0477   -1.3291 H       1  UNL1        0.0287
     25 H          -2.7564    3.4419   -2.6294 H       1  UNL1        0.0279
     26 H          -3.6033    3.2994   -1.0524 H       1  UNL1        0.0279
     27 H          -0.7672    4.3281   -1.6104 H       1  UNL1        0.0444
     28 H          -2.0393    5.0775   -0.5980 H       1  UNL1        0.0444
     29 H          -2.0564    6.3519    2.0084 H       1  UNL1        0.0637
     30 H          -3.8773    6.8213    3.5984 H       1  UNL1        0.0618
     31 H          -4.5567    5.1094    5.2324 H       1  UNL1        0.0623
     32 H          -1.5984    2.4565    3.6834 H       1  UNL1        0.0642
@<TRIPOS>BOND
     1     1     2   ar
     2     2     3   ar
     3     2     4    1
     4     4     5    1
     5     4     9    1
     6     4     6    1
     7     6     7    1
     8     6    23    1
     9     6    24    1
    10     7     8    1
    11     7    25    1
    12     7    26    1
    13     8     9    1
    14     8    27    1
    15     8    28    1
    16    10     9    1
    17    10    11    2
    18    10    12    2
    19    10    13    1
    20    13    22   ar
    21    13    14   ar
    22    14    15   ar
    23    14    29    1
    24    15    16   ar
    25    15    30    1
    26    16    17   ar
    27    16    31    1
    28    17    18    1
    29    17    22   ar
    30    18    19    1
    31    18    20    1
    32    18    21    1
    33    22    32    1
