@<TRIPOS>MOLECULE
ZINC000630095943
 38 40 0 0 0
SMALL
GASTEIGER

@<TRIPOS>ATOM
      1 O          -0.4590    0.9126    0.8162 O.2     1  UNL1       -0.1528
      2 S          -0.9012    2.2330    0.5329 S.O2    1  UNL1        0.0636
      3 O          -0.1021    3.3858    0.7605 O.2     1  UNL1       -0.1528
      4 C          -1.3341    2.2570   -1.1749 C.ar    1  UNL1        0.1398
      5 C          -0.8960    3.2094   -2.0228 C.ar    1  UNL1        0.0227
      6 S          -1.5712    2.8170   -3.5553 S.2     1  UNL1        0.0059
      7 N          -2.3957    1.4308   -3.0320 N.ar    1  UNL1       -0.2084
      8 C          -2.1482    1.2937   -1.7543 C.ar    1  UNL1        0.1063
      9 C          -2.7158    0.1730   -0.9646 C.ar    1  UNL1        0.0035
     10 C          -1.8719   -0.6888   -0.2673 C.ar    1  UNL1       -0.0525
     11 C          -2.4053   -1.7297    0.4657 C.ar    1  UNL1       -0.0606
     12 C          -3.7747   -1.9183    0.5083 C.ar    1  UNL1       -0.0501
     13 C          -4.6174   -1.0660   -0.1826 C.ar    1  UNL1        0.0554
     14 C          -6.1085   -1.2782   -0.1318 C.3     1  UNL1        0.4174
     15 F          -6.3945   -2.3886    0.6697 F       1  UNL1       -0.1659
     16 F          -6.7230   -0.1430    0.4077 F       1  UNL1       -0.1659
     17 F          -6.5923   -1.4999   -1.4256 F       1  UNL1       -0.1659
     18 C          -4.0953   -0.0181   -0.9132 C.ar    1  UNL1       -0.0408
     19 N          -2.2973    2.4539    1.3957 N.3     1  UNL1       -0.1714
     20 C          -2.8539    3.7542    1.8111 C.3     1  UNL1        0.0491
     21 C          -4.3694    3.4947    1.9998 C.3     1  UNL1        0.0966
     22 H          -4.8045    4.2104    2.6974 H       1  UNL1        0.0633
     23 O          -5.0542    3.5248    0.7459 O.3     1  UNL1       -0.3879
     24 C          -4.3682    2.0638    2.5996 C.3     1  UNL1        0.0966
     25 H          -4.1922    2.0965    3.6748 H       1  UNL1        0.0633
     26 O          -5.5965    1.3933    2.3103 O.3     1  UNL1       -0.3879
     27 C          -3.1902    1.3860    1.8687 C.3     1  UNL1        0.0491
     28 H          -0.2543    4.0458   -1.7882 H       1  UNL1        0.0728
     29 H          -0.8023   -0.5428   -0.3004 H       1  UNL1        0.0624
     30 H          -1.7520   -2.3983    1.0067 H       1  UNL1        0.0618
     31 H          -4.1878   -2.7343    1.0828 H       1  UNL1        0.0623
     32 H          -4.7541    0.6470   -1.4519 H       1  UNL1        0.0630
     33 H          -2.4045    4.0766    2.7503 H       1  UNL1        0.0470
     34 H          -2.6908    4.5021    1.0351 H       1  UNL1        0.0470
     35 H          -4.9980    4.3742    0.2873 H       1  UNL1        0.2099
     36 H          -5.6466    0.4945    2.6635 H       1  UNL1        0.2099
     37 H          -3.5623    0.8059    1.0243 H       1  UNL1        0.0470
     38 H          -2.6505    0.7366    2.5581 H       1  UNL1        0.0470
@<TRIPOS>BOND
     1     1     2    2
     2     2     3    2
     3     2     4    1
     4     2    19    1
     5     4     8   ar
     6     4     5   ar
     7     5     6   ar
     8     5    28    1
     9     6     7   ar
    10     7     8   ar
    11     8     9    1
    12     9    18   ar
    13     9    10   ar
    14    10    11   ar
    15    10    29    1
    16    11    12   ar
    17    11    30    1
    18    12    13   ar
    19    12    31    1
    20    13    14    1
    21    13    18   ar
    22    14    15    1
    23    14    16    1
    24    14    17    1
    25    18    32    1
    26    19    27    1
    27    19    20    1
    28    20    21    1
    29    20    33    1
    30    20    34    1
    31    21    22    1
    32    21    23    1
    33    21    24    1
    34    23    35    1
    35    24    25    1
    36    24    26    1
    37    24    27    1
    38    26    36    1
    39    27    37    1
    40    27    38    1
