@<TRIPOS>MOLECULE
ZINC000237634822
 39 40 0 0 0
SMALL
GASTEIGER

@<TRIPOS>ATOM
      1 C          -0.0187    1.5258    0.0104 C.3     1  UNL1       -0.0476
      2 C           0.0021   -0.0041    0.0020 C.3     1  UNL1        0.0341
      3 H          -1.0198   -0.3834    0.0097 H       1  UNL1        0.0479
      4 C           0.7248   -0.5010   -1.2540 C.3     1  UNL1        0.0073
      5 C           2.1947   -0.0792   -1.1923 C.3     1  UNL1       -0.0216
      6 H           2.2581    1.0063   -1.1163 H       1  UNL1        0.0851
      7 N           2.8835   -0.5257   -2.4106 N.4     1  UNL1        0.2208
      8 H           2.4465   -0.1055   -3.2172 H       1  UNL1        0.1997
      9 H           3.8526   -0.2477   -2.3701 H       1  UNL1        0.1997
     10 H           2.8244   -1.5304   -2.4813 H       1  UNL1        0.1997
     11 C           2.8589   -0.7156    0.0308 C.3     1  UNL1        0.0047
     12 C           2.1603   -0.2211    1.3014 C.3     1  UNL1        0.0259
     13 N           0.7181   -0.4935    1.1880 N.3     1  UNL1       -0.1734
     14 S          -0.0772   -1.3353    2.3717 S.O2    1  UNL1        0.0625
     15 O          -1.2290   -1.8983    1.7588 O.2     1  UNL1       -0.1528
     16 O           0.9061   -2.1132    3.0405 O.2     1  UNL1       -0.1528
     17 C          -0.6629   -0.1583    3.5448 C.ar    1  UNL1        0.1237
     18 C          -2.0213    0.0187    3.7270 C.ar    1  UNL1       -0.0334
     19 C          -2.4811    0.9423    4.6475 C.ar    1  UNL1       -0.0482
     20 C          -1.5825    1.6894    5.3857 C.ar    1  UNL1        0.0563
     21 C          -2.0845    2.6958    6.3887 C.3     1  UNL1        0.4175
     22 F          -2.2351    2.0773    7.6345 F       1  UNL1       -0.1659
     23 F          -1.1651    3.7447    6.4970 F       1  UNL1       -0.1659
     24 F          -3.3192    3.1997    5.9659 F       1  UNL1       -0.1659
     25 C          -0.2235    1.5132    5.2043 C.ar    1  UNL1       -0.0299
     26 C           0.2371    0.5849    4.2880 C.ar    1  UNL1        0.0678
     27 CL          1.9437    0.3631    4.0597 Cl      1  UNL1       -0.0815
     28 H           1.0039    1.9031    0.0027 H       1  UNL1        0.0245
     29 H          -0.5459    1.8868   -0.8726 H       1  UNL1        0.0245
     30 H          -0.5289    1.8773    0.9072 H       1  UNL1        0.0245
     31 H           0.6601   -1.5878   -1.3050 H       1  UNL1        0.0335
     32 H           0.2584   -0.0663   -2.1381 H       1  UNL1        0.0335
     33 H           2.7740   -1.8004   -0.0323 H       1  UNL1        0.0333
     34 H           3.9114   -0.4337    0.0612 H       1  UNL1        0.0333
     35 H           2.5633   -0.7457    2.1677 H       1  UNL1        0.0446
     36 H           2.3215    0.8511    1.4133 H       1  UNL1        0.0446
     37 H          -2.7239   -0.5642    3.1500 H       1  UNL1        0.0638
     38 H          -3.5428    1.0803    4.7895 H       1  UNL1        0.0624
     39 H           0.4785    2.0969    5.7812 H       1  UNL1        0.0638
@<TRIPOS>UNITY_ATOM_ATTR
7 1
charge 1
@<TRIPOS>BOND
     1     1     2    1
     2     1    28    1
     3     1    29    1
     4     1    30    1
     5     2     3    1
     6     2    13    1
     7     2     4    1
     8     4     5    1
     9     4    31    1
    10     4    32    1
    11     5     6    1
    12     5     7    1
    13     5    11    1
    14     7     8    1
    15     7     9    1
    16     7    10    1
    17    11    12    1
    18    11    33    1
    19    11    34    1
    20    12    13    1
    21    12    35    1
    22    12    36    1
    23    14    13    1
    24    14    15    2
    25    14    16    2
    26    14    17    1
    27    17    26   ar
    28    17    18   ar
    29    18    19   ar
    30    18    37    1
    31    19    20   ar
    32    19    38    1
    33    20    21    1
    34    20    25   ar
    35    21    22    1
    36    21    23    1
    37    21    24    1
    38    25    26   ar
    39    25    39    1
    40    26    27    1
