@<TRIPOS>MOLECULE
ZINC000020032689
 55 56 0 0 0
SMALL
GASTEIGER

@<TRIPOS>ATOM
      1 C          -0.0178    1.4608    0.0101 C.3     1  UNL1        0.0086
      2 N           0.0021   -0.0041    0.0020 N.3     1  UNL1       -0.1827
      3 C           0.0241   -0.7433    1.2666 C.3     1  UNL1        0.0086
      4 S          -0.0004   -0.8243   -1.4366 S.O2    1  UNL1        0.0604
      5 O          -0.5247   -2.1160   -1.1611 O.2     1  UNL1       -0.1529
      6 O          -0.5660    0.0551   -2.3989 O.2     1  UNL1       -0.1529
      7 C           1.6816   -1.0597   -1.9056 C.ar    1  UNL1        0.1055
      8 C           2.3234   -0.1095   -2.6777 C.ar    1  UNL1       -0.0350
      9 C           3.6430   -0.2942   -3.0457 C.ar    1  UNL1       -0.0552
     10 C           4.3210   -1.4289   -2.6412 C.ar    1  UNL1       -0.0302
     11 C           5.7594   -1.6304   -3.0428 C.3     1  UNL1        0.0369
     12 N           6.6369   -1.0418   -2.0280 N.am    1  UNL1       -0.3084
     13 C           7.9750   -1.1025   -2.1769 C.2     1  UNL1        0.2509
     14 O           8.4528   -1.6443   -3.1511 O.2     1  UNL1       -0.2721
     15 C           8.8776   -0.4970   -1.1330 C.3     1  UNL1        0.1651
     16 O          10.2416   -0.6882   -1.5138 O.3     1  UNL1       -0.4828
     17 C          11.1910   -0.1974   -0.6744 C.ar    1  UNL1        0.1213
     18 C          10.8177    0.4496    0.4946 C.ar    1  UNL1       -0.0181
     19 C          11.7847    0.9472    1.3464 C.ar    1  UNL1       -0.0319
     20 C          13.1238    0.8011    1.0345 C.ar    1  UNL1        0.1057
     21 S          14.3549    1.4374    2.1228 S.O2    1  UNL1        0.0604
     22 O          15.5188    1.6448    1.3346 O.2     1  UNL1       -0.1529
     23 O          13.7312    2.4695    2.8746 O.2     1  UNL1       -0.1529
     24 N          14.7269    0.2347    3.1987 N.3     1  UNL1       -0.1827
     25 C          15.7989   -0.7158    2.8929 C.3     1  UNL1        0.0086
     26 C          13.9841    0.1213    4.4563 C.3     1  UNL1        0.0086
     27 C          13.4985    0.1563   -0.1297 C.ar    1  UNL1       -0.0319
     28 C          12.5354   -0.3477   -0.9822 C.ar    1  UNL1       -0.0181
     29 C           3.6797   -2.3784   -1.8680 C.ar    1  UNL1       -0.0552
     30 C           2.3612   -2.1919   -1.4968 C.ar    1  UNL1       -0.0350
     31 H           1.0048    1.8381    0.0023 H       1  UNL1        0.0408
     32 H          -0.5450    1.8219   -0.8730 H       1  UNL1        0.0408
     33 H          -0.5280    1.8123    0.9069 H       1  UNL1        0.0408
     34 H          -0.9979   -0.9406    1.5900 H       1  UNL1        0.0408
     35 H           0.5496   -1.6879    1.1262 H       1  UNL1        0.0408
     36 H           0.5371   -0.1514    2.0246 H       1  UNL1        0.0408
     37 H           1.7936    0.7771   -2.9938 H       1  UNL1        0.0637
     38 H           4.1441    0.4479   -3.6495 H       1  UNL1        0.0621
     39 H           5.9668   -2.6971   -3.1279 H       1  UNL1        0.0512
     40 H           5.9396   -1.1475   -4.0032 H       1  UNL1        0.0512
     41 H           6.2547   -0.6085   -1.2488 H       1  UNL1        0.1491
     42 H           8.6702    0.5697   -1.0478 H       1  UNL1        0.0795
     43 H           8.6973   -0.9800   -0.1725 H       1  UNL1        0.0795
     44 H           9.7718    0.5646    0.7384 H       1  UNL1        0.0655
     45 H          11.4946    1.4510    2.2566 H       1  UNL1        0.0638
     46 H          16.7449   -0.3318    3.2746 H       1  UNL1        0.0408
     47 H          15.5796   -1.6744    3.3632 H       1  UNL1        0.0408
     48 H          15.8698   -0.8485    1.8133 H       1  UNL1        0.0408
     49 H          13.2324    0.9091    4.5066 H       1  UNL1        0.0408
     50 H          13.4946   -0.8515    4.5027 H       1  UNL1        0.0408
     51 H          14.6726    0.2220    5.2953 H       1  UNL1        0.0408
     52 H          14.5452    0.0431   -0.3710 H       1  UNL1        0.0638
     53 H          12.8286   -0.8514   -1.8915 H       1  UNL1        0.0655
     54 H           4.2095   -3.2648   -1.5516 H       1  UNL1        0.0621
     55 H           1.8602   -2.9338   -0.8927 H       1  UNL1        0.0637
@<TRIPOS>BOND
     1     1     2    1
     2     1    31    1
     3     1    32    1
     4     1    33    1
     5     2     3    1
     6     4     2    1
     7     3    34    1
     8     3    35    1
     9     3    36    1
    10     4     5    2
    11     4     6    2
    12     4     7    1
    13     7    30   ar
    14     7     8   ar
    15     8     9   ar
    16     8    37    1
    17     9    10   ar
    18     9    38    1
    19    10    11    1
    20    10    29   ar
    21    11    12    1
    22    11    39    1
    23    11    40    1
    24    12    13   am
    25    12    41    1
    26    13    14    2
    27    13    15    1
    28    15    16    1
    29    15    42    1
    30    15    43    1
    31    16    17    1
    32    17    28   ar
    33    17    18   ar
    34    18    19   ar
    35    18    44    1
    36    19    20   ar
    37    19    45    1
    38    20    21    1
    39    20    27   ar
    40    21    22    2
    41    21    23    2
    42    21    24    1
    43    24    25    1
    44    24    26    1
    45    25    46    1
    46    25    47    1
    47    25    48    1
    48    26    49    1
    49    26    50    1
    50    26    51    1
    51    27    28   ar
    52    27    52    1
    53    28    53    1
    54    29    30   ar
    55    29    54    1
    56    30    55    1
