@<TRIPOS>MOLECULE
ZINC000059942109
 61 64 0 0 0
SMALL
GASTEIGER

@<TRIPOS>ATOM
      1 C          -9.2825   -5.8521    3.9395 C.3     1  UNL1        0.0790
      2 O          -9.5351   -4.5966    3.3056 O.3     1  UNL1       -0.4915
      3 C          -8.5813   -4.1314    2.4551 C.ar    1  UNL1        0.1616
      4 C          -7.4309   -4.8699    2.2314 C.ar    1  UNL1       -0.0145
      5 C          -6.4622   -4.3957    1.3659 C.ar    1  UNL1       -0.0317
      6 C          -6.6386   -3.1851    0.7228 C.ar    1  UNL1        0.1092
      7 S          -5.4003   -2.5861   -0.3784 S.O2    1  UNL1        0.0617
      8 O          -5.5433   -1.1727   -0.4123 O.2     1  UNL1       -0.1528
      9 O          -4.1906   -3.2364   -0.0139 O.2     1  UNL1       -0.1528
     10 N          -5.7864   -3.1316   -1.8935 N.3     1  UNL1       -0.1635
     11 C          -5.3939   -4.4807   -2.3084 C.3     1  UNL1        0.0975
     12 C          -6.5364   -5.4331   -2.0661 C.2     1  UNL1        0.2330
     13 O          -7.5762   -5.0251   -1.5935 O.2     1  UNL1       -0.2740
     14 N          -6.4028   -6.7382   -2.3747 N.am    1  UNL1       -0.2843
     15 C          -7.4226   -7.6426   -2.0508 C.ar    1  UNL1        0.0371
     16 C          -7.6653   -8.7375   -2.8687 C.ar    1  UNL1       -0.0368
     17 C          -8.6724   -9.6285   -2.5509 C.ar    1  UNL1       -0.0145
     18 C          -9.4432   -9.4325   -1.4149 C.ar    1  UNL1        0.1622
     19 O         -10.4371  -10.3166   -1.1224 O.3     1  UNL1       -0.4849
     20 C         -10.9439  -10.2956    0.2164 C.3     1  UNL1        0.1237
     21 C         -11.1880   -8.8339    0.6152 C.3     1  UNL1        0.1237
     22 O          -9.9429   -8.1323    0.5299 O.3     1  UNL1       -0.4849
     23 C          -9.2000   -8.3387   -0.5918 C.ar    1  UNL1        0.1638
     24 C          -8.1871   -7.4473   -0.9089 C.ar    1  UNL1        0.0049
     25 C          -6.5203   -2.2651   -2.8191 C.3     1  UNL1        0.0460
     26 C          -5.5465   -1.5677   -3.7335 C.ar    1  UNL1       -0.0317
     27 C          -4.9979   -0.3542   -3.3627 C.ar    1  UNL1       -0.0573
     28 C          -4.1046    0.2856   -4.2015 C.ar    1  UNL1       -0.0615
     29 C          -3.7595   -0.2883   -5.4109 C.ar    1  UNL1       -0.0617
     30 C          -4.3074   -1.5022   -5.7812 C.ar    1  UNL1       -0.0615
     31 C          -5.1975   -2.1440   -4.9405 C.ar    1  UNL1       -0.0573
     32 C          -7.7849   -2.4432    0.9413 C.ar    1  UNL1        0.0101
     33 C          -8.7615   -2.9149    1.8030 C.ar    1  UNL1        0.1633
     34 O          -9.8894   -2.1865    2.0190 O.3     1  UNL1       -0.4914
     35 C         -10.0017   -0.9430    1.3239 C.3     1  UNL1        0.0790
     36 H         -10.1197   -6.1058    4.5897 H       1  UNL1        0.0660
     37 H          -9.1648   -6.6253    3.1803 H       1  UNL1        0.0660
     38 H          -8.3702   -5.7830    4.5321 H       1  UNL1        0.0660
     39 H          -7.2903   -5.8158    2.7332 H       1  UNL1        0.0656
     40 H          -5.5657   -4.9724    1.1924 H       1  UNL1        0.0638
     41 H          -5.1433   -4.4762   -3.3692 H       1  UNL1        0.0540
     42 H          -4.5260   -4.8002   -1.7315 H       1  UNL1        0.0540
     43 H          -5.6005   -7.0514   -2.8210 H       1  UNL1        0.1548
     44 H          -7.0669   -8.8929   -3.7542 H       1  UNL1        0.0637
     45 H          -8.8599  -10.4795   -3.1889 H       1  UNL1        0.0656
     46 H         -11.8807  -10.8508    0.2636 H       1  UNL1        0.0731
     47 H         -10.2157  -10.7442    0.8922 H       1  UNL1        0.0731
     48 H         -11.9112   -8.3833   -0.0645 H       1  UNL1        0.0731
     49 H         -11.5656   -8.7897    1.6367 H       1  UNL1        0.0731
     50 H          -7.9952   -6.5984   -0.2694 H       1  UNL1        0.0674
     51 H          -7.2083   -2.8674   -3.4124 H       1  UNL1        0.0493
     52 H          -7.0828   -1.5227   -2.2531 H       1  UNL1        0.0493
     53 H          -5.2674    0.0941   -2.4179 H       1  UNL1        0.0621
     54 H          -3.6765    1.2340   -3.9122 H       1  UNL1        0.0618
     55 H          -3.0621    0.2119   -6.0665 H       1  UNL1        0.0618
     56 H          -4.0381   -1.9503   -6.7262 H       1  UNL1        0.0618
     57 H          -5.6255   -3.0924   -5.2299 H       1  UNL1        0.0621
     58 H          -7.9203   -1.4975    0.4375 H       1  UNL1        0.0675
     59 H          -9.1742   -0.2925    1.6071 H       1  UNL1        0.0660
     60 H          -9.9708   -1.1234    0.2493 H       1  UNL1        0.0660
     61 H         -10.9457   -0.4647    1.5850 H       1  UNL1        0.0660
@<TRIPOS>BOND
     1     1     2    1
     2     1    36    1
     3     1    37    1
     4     1    38    1
     5     2     3    1
     6     3    33   ar
     7     3     4   ar
     8     4     5   ar
     9     4    39    1
    10     5     6   ar
    11     5    40    1
    12     6     7    1
    13     6    32   ar
    14     7     8    2
    15     7     9    2
    16     7    10    1
    17    10    11    1
    18    10    25    1
    19    11    12    1
    20    11    41    1
    21    11    42    1
    22    12    13    2
    23    12    14   am
    24    14    15    1
    25    14    43    1
    26    15    24   ar
    27    15    16   ar
    28    16    17   ar
    29    16    44    1
    30    17    18   ar
    31    17    45    1
    32    18    23   ar
    33    18    19    1
    34    19    20    1
    35    20    21    1
    36    20    46    1
    37    20    47    1
    38    21    22    1
    39    21    48    1
    40    21    49    1
    41    22    23    1
    42    23    24   ar
    43    24    50    1
    44    25    26    1
    45    25    51    1
    46    25    52    1
    47    26    31   ar
    48    26    27   ar
    49    27    28   ar
    50    27    53    1
    51    28    29   ar
    52    28    54    1
    53    29    30   ar
    54    29    55    1
    55    30    31   ar
    56    30    56    1
    57    31    57    1
    58    32    33   ar
    59    32    58    1
    60    33    34    1
    61    34    35    1
    62    35    59    1
    63    35    60    1
    64    35    61    1
