@<TRIPOS>MOLECULE
ZINC000032867737
 46 47 0 0 0
SMALL
GASTEIGER

@<TRIPOS>ATOM
      1 C           0.0274    1.5273    0.0056 C.3     1  UNL1       -0.0507
      2 C           0.0368   -0.0027   -0.0013 C.3     1  UNL1        0.0177
      3 N           0.7056   -0.4815   -1.2136 N.3     1  UNL1       -0.1771
      4 C           2.1645   -0.6124   -1.2422 C.3     1  UNL1        0.0177
      5 C           2.5663   -1.9695   -0.6611 C.3     1  UNL1       -0.0507
      6 S          -0.1875   -0.8749   -2.5515 S.O2    1  UNL1        0.0608
      7 O           0.6016   -1.7829   -3.3079 O.2     1  UNL1       -0.1528
      8 O          -1.4942   -1.1823   -2.0855 O.2     1  UNL1       -0.1528
      9 C          -0.3375    0.5853   -3.5262 C.ar    1  UNL1        0.1056
     10 C          -1.3980    1.4479   -3.3178 C.ar    1  UNL1       -0.0336
     11 C          -1.5185    2.5933   -4.0802 C.ar    1  UNL1       -0.0384
     12 C          -0.5729    2.8785   -5.0564 C.ar    1  UNL1        0.0364
     13 N          -0.6918    4.0383   -5.8301 N.am    1  UNL1       -0.2706
     14 C           0.3088    4.4902   -6.8040 C.3     1  UNL1        0.0331
     15 C          -0.0197    5.9755   -7.0733 C.3     1  UNL1        0.0807
     16 H           0.5506    6.6273   -6.4115 H       1  UNL1        0.0434
     17 C           0.2266    6.3291   -8.5174 C.2     1  UNL1        0.3119
     18 O           0.6291    5.4875   -9.2853 O.2     1  UNL1       -0.2505
     19 O          -0.0012    7.5789   -8.9506 O.3     1  UNL1       -0.4677
     20 C           0.2578    7.8477  -10.3538 C.3     1  UNL1        0.0817
     21 C          -1.5283    6.0304   -6.7388 C.3     1  UNL1        0.0389
     22 C          -1.7398    4.8786   -5.7810 C.2     1  UNL1        0.2206
     23 O          -2.7103    4.7379   -5.0673 O.2     1  UNL1       -0.2752
     24 C           0.4912    2.0104   -5.2628 C.ar    1  UNL1       -0.0384
     25 C           0.6086    0.8691   -4.4939 C.ar    1  UNL1       -0.0336
     26 H           1.0526    1.8970   -0.0139 H       1  UNL1        0.0243
     27 H          -0.5068    1.8913   -0.8720 H       1  UNL1        0.0243
     28 H          -0.4702    1.8835    0.9075 H       1  UNL1        0.0243
     29 H           0.5710   -0.3667    0.8763 H       1  UNL1        0.0441
     30 H          -0.9884   -0.3724    0.0182 H       1  UNL1        0.0441
     31 H           2.5156   -0.5396   -2.2715 H       1  UNL1        0.0441
     32 H           2.6124    0.1842   -0.6482 H       1  UNL1        0.0441
     33 H           2.1183   -2.7661   -1.2550 H       1  UNL1        0.0243
     34 H           3.6517   -2.0669   -0.6824 H       1  UNL1        0.0243
     35 H           2.2151   -2.0423    0.3682 H       1  UNL1        0.0243
     36 H          -2.1331    1.2256   -2.5585 H       1  UNL1        0.0638
     37 H          -2.3474    3.2662   -3.9175 H       1  UNL1        0.0637
     38 H           1.3112    4.3953   -6.3866 H       1  UNL1        0.0477
     39 H           0.2266    3.9128   -7.7248 H       1  UNL1        0.0477
     40 H           1.3063    7.6478  -10.5745 H       1  UNL1        0.0661
     41 H          -0.3719    7.2051  -10.9691 H       1  UNL1        0.0661
     42 H           0.0335    8.8920  -10.5711 H       1  UNL1        0.0661
     43 H          -1.7790    6.9779   -6.2617 H       1  UNL1        0.0367
     44 H          -2.1244    5.8865   -7.6400 H       1  UNL1        0.0367
     45 H           1.2282    2.2294   -6.0213 H       1  UNL1        0.0637
     46 H           1.4359    0.1936   -4.6539 H       1  UNL1        0.0638
@<TRIPOS>BOND
     1     1     2    1
     2     1    26    1
     3     1    27    1
     4     1    28    1
     5     2     3    1
     6     2    29    1
     7     2    30    1
     8     3     4    1
     9     6     3    1
    10     4     5    1
    11     4    31    1
    12     4    32    1
    13     5    33    1
    14     5    34    1
    15     5    35    1
    16     6     7    2
    17     6     8    2
    18     6     9    1
    19     9    25   ar
    20     9    10   ar
    21    10    11   ar
    22    10    36    1
    23    11    12   ar
    24    11    37    1
    25    12    13    1
    26    12    24   ar
    27    13    22   am
    28    13    14    1
    29    14    15    1
    30    14    38    1
    31    14    39    1
    32    15    16    1
    33    15    17    1
    34    15    21    1
    35    17    18    2
    36    17    19    1
    37    19    20    1
    38    20    40    1
    39    20    41    1
    40    20    42    1
    41    21    22    1
    42    21    43    1
    43    21    44    1
    44    22    23    2
    45    24    25   ar
    46    24    45    1
    47    25    46    1
