@<TRIPOS>MOLECULE
ZINC000028654819
 46 48 0 0 0
SMALL
GASTEIGER

@<TRIPOS>ATOM
      1 C           0.4855   -0.5151    0.6140 C.3     1  UNL1       -0.0372
      2 C           0.2940   -1.4074   -0.6140 C.3     1  UNL1        0.0720
      3 H          -0.7538   -1.6970   -0.6938 H       1  UNL1        0.0609
      4 C           0.7107   -0.6405   -1.8743 C.3     1  UNL1        0.0411
      5 N           2.1655   -0.4250   -1.8266 N.am    1  UNL1       -0.2926
      6 C           2.6920    0.8005   -2.0203 C.2     1  UNL1        0.2473
      7 O           1.9717    1.7294   -2.3309 O.2     1  UNL1       -0.2700
      8 C           4.1433    1.0149   -1.8554 C.ar    1  UNL1        0.0446
      9 C           4.7809    0.6254   -0.6777 C.ar    1  UNL1       -0.0490
     10 C           6.1375    0.8282   -0.5288 C.ar    1  UNL1       -0.0610
     11 C           6.8734    1.4177   -1.5429 C.ar    1  UNL1       -0.0611
     12 C           6.2592    1.8097   -2.7158 C.ar    1  UNL1       -0.0533
     13 C           4.8929    1.6079   -2.8873 C.ar    1  UNL1       -0.0058
     14 C           4.2296    2.0270   -4.1445 C.ar    1  UNL1       -0.0171
     15 C           3.4476    1.1203   -4.8591 C.ar    1  UNL1       -0.0535
     16 C           2.8324    1.5163   -6.0291 C.ar    1  UNL1       -0.0495
     17 C           2.9903    2.8099   -6.4933 C.ar    1  UNL1        0.0548
     18 C           2.3157    3.2361   -7.7718 C.3     1  UNL1        0.4174
     19 F           1.0447    3.7436   -7.4816 F       1  UNL1       -0.1659
     20 F           3.0820    4.2263   -8.3957 F       1  UNL1       -0.1659
     21 F           2.1941    2.1338   -8.6247 F       1  UNL1       -0.1659
     22 C           3.7645    3.7140   -5.7884 C.ar    1  UNL1       -0.0495
     23 C           4.3803    3.3311   -4.6143 C.ar    1  UNL1       -0.0535
     24 C           3.0285   -1.5868   -1.5607 C.3     1  UNL1        0.0411
     25 C           2.4989   -2.3076   -0.3157 C.3     1  UNL1        0.0720
     26 H           2.6434   -1.6751    0.5602 H       1  UNL1        0.0609
     27 C           3.2561   -3.6236   -0.1263 C.3     1  UNL1       -0.0372
     28 O           1.1044   -2.5780   -0.4847 O.3     1  UNL1       -0.3708
     29 H           1.5335   -0.2259    0.6931 H       1  UNL1        0.0255
     30 H          -0.1313    0.3780    0.5138 H       1  UNL1        0.0255
     31 H           0.1907   -1.0616    1.5098 H       1  UNL1        0.0255
     32 H           0.4546   -1.2225   -2.7596 H       1  UNL1        0.0490
     33 H           0.1979    0.3208   -1.9053 H       1  UNL1        0.0490
     34 H           4.2129    0.1657    0.1176 H       1  UNL1        0.0625
     35 H           6.6284    0.5255    0.3843 H       1  UNL1        0.0618
     36 H           7.9347    1.5723   -1.4155 H       1  UNL1        0.0618
     37 H           6.8400    2.2688   -3.5021 H       1  UNL1        0.0624
     38 H           3.3239    0.1101   -4.4978 H       1  UNL1        0.0624
     39 H           2.2267    0.8149   -6.5837 H       1  UNL1        0.0623
     40 H           3.8842    4.7226   -6.1557 H       1  UNL1        0.0623
     41 H           4.9843    4.0378   -4.0647 H       1  UNL1        0.0624
     42 H           3.0058   -2.2640   -2.4145 H       1  UNL1        0.0490
     43 H           4.0507   -1.2520   -1.3841 H       1  UNL1        0.0490
     44 H           4.3189   -3.4165   -0.0012 H       1  UNL1        0.0255
     45 H           2.8790   -4.1355    0.7591 H       1  UNL1        0.0255
     46 H           3.1097   -4.2562   -1.0018 H       1  UNL1        0.0255
@<TRIPOS>BOND
     1     1     2    1
     2     1    29    1
     3     1    30    1
     4     1    31    1
     5     2     3    1
     6     2    28    1
     7     2     4    1
     8     4     5    1
     9     4    32    1
    10     4    33    1
    11     5     6   am
    12     5    24    1
    13     6     7    2
    14     6     8    1
    15     8    13   ar
    16     8     9   ar
    17     9    10   ar
    18     9    34    1
    19    10    11   ar
    20    10    35    1
    21    11    12   ar
    22    11    36    1
    23    12    13   ar
    24    12    37    1
    25    13    14    1
    26    14    23   ar
    27    14    15   ar
    28    15    16   ar
    29    15    38    1
    30    16    17   ar
    31    16    39    1
    32    17    18    1
    33    17    22   ar
    34    18    19    1
    35    18    20    1
    36    18    21    1
    37    22    23   ar
    38    22    40    1
    39    23    41    1
    40    24    25    1
    41    24    42    1
    42    24    43    1
    43    25    26    1
    44    25    27    1
    45    25    28    1
    46    27    44    1
    47    27    45    1
    48    27    46    1
