@<TRIPOS>MOLECULE
ZINC000006325645
 55 56 0 0 0
SMALL
GASTEIGER

@<TRIPOS>ATOM
      1 C          -0.0187    1.5258    0.0104 C.3     1  UNL1       -0.0626
      2 C           0.0021   -0.0041    0.0020 C.3     1  UNL1       -0.0453
      3 C           0.7421   -0.5109    1.2415 C.3     1  UNL1       -0.0626
      4 C          -1.4333   -0.5336    0.0129 C.3     1  UNL1       -0.0350
      5 C          -2.1352   -0.1312   -1.2857 C.3     1  UNL1        0.0119
      6 N          -3.5096   -0.6383   -1.2753 N.am    1  UNL1       -0.3142
      7 C          -4.3226   -0.4031   -2.3242 C.2     1  UNL1        0.2288
      8 O          -3.9164    0.2284   -3.2766 O.2     1  UNL1       -0.2743
      9 C          -5.7365   -0.9247   -2.3135 C.3     1  UNL1        0.0968
     10 N          -6.4086   -0.5394   -3.5569 N.3     1  UNL1       -0.1675
     11 C          -6.2612   -1.3676   -4.7562 C.3     1  UNL1        0.0250
     12 C          -7.2895   -2.5001   -4.7235 C.3     1  UNL1       -0.0132
     13 C          -7.1379   -3.3521   -5.9573 C.ar    1  UNL1       -0.0461
     14 C          -7.8489   -3.0435   -7.1019 C.ar    1  UNL1       -0.0585
     15 C          -7.7098   -3.8251   -8.2336 C.ar    1  UNL1       -0.0615
     16 C          -6.8595   -4.9148   -8.2209 C.ar    1  UNL1       -0.0617
     17 C          -6.1478   -5.2228   -7.0765 C.ar    1  UNL1       -0.0615
     18 C          -6.2836   -4.4388   -5.9461 C.ar    1  UNL1       -0.0585
     19 S          -7.3349    0.8324   -3.6066 S.O2    1  UNL1        0.0613
     20 O          -8.3506    0.5959   -4.5718 O.2     1  UNL1       -0.1528
     21 O          -7.6112    1.1791   -2.2566 O.2     1  UNL1       -0.1528
     22 C          -6.3233    2.1216   -4.2543 C.ar    1  UNL1        0.1055
     23 C          -5.5681    2.9029   -3.4000 C.ar    1  UNL1       -0.0353
     24 C          -4.7745    3.9143   -3.9081 C.ar    1  UNL1       -0.0599
     25 C          -4.7359    4.1441   -5.2707 C.ar    1  UNL1       -0.0616
     26 C          -5.4904    3.3621   -6.1251 C.ar    1  UNL1       -0.0599
     27 C          -6.2807    2.3479   -5.6174 C.ar    1  UNL1       -0.0353
     28 H           1.0039    1.9031    0.0027 H       1  UNL1        0.0232
     29 H          -0.5459    1.8868   -0.8726 H       1  UNL1        0.0232
     30 H          -0.5289    1.8773    0.9072 H       1  UNL1        0.0232
     31 H           0.5123   -0.3556   -0.8948 H       1  UNL1        0.0296
     32 H           0.2319   -0.1594    2.1383 H       1  UNL1        0.0232
     33 H           0.7568   -1.6008    1.2356 H       1  UNL1        0.0232
     34 H           1.7647   -0.1336    1.2338 H       1  UNL1        0.0232
     35 H          -1.4190   -1.6203    0.0965 H       1  UNL1        0.0283
     36 H          -1.9701   -0.1109    0.8621 H       1  UNL1        0.0283
     37 H          -2.1495    0.9555   -1.3693 H       1  UNL1        0.0462
     38 H          -1.5984   -0.5539   -2.1349 H       1  UNL1        0.0462
     39 H          -3.8345   -1.1433   -0.5135 H       1  UNL1        0.1487
     40 H          -5.7222   -2.0114   -2.2299 H       1  UNL1        0.0539
     41 H          -6.2733   -0.5020   -1.4642 H       1  UNL1        0.0539
     42 H          -6.4235   -0.7550   -5.6430 H       1  UNL1        0.0447
     43 H          -5.2566   -1.7897   -4.7851 H       1  UNL1        0.0447
     44 H          -7.1272   -3.1127   -3.8367 H       1  UNL1        0.0326
     45 H          -8.2940   -2.0780   -4.6946 H       1  UNL1        0.0326
     46 H          -8.5133   -2.1921   -7.1119 H       1  UNL1        0.0620
     47 H          -8.2658   -3.5844   -9.1277 H       1  UNL1        0.0618
     48 H          -6.7514   -5.5258   -9.1048 H       1  UNL1        0.0618
     49 H          -5.4837   -6.0744   -7.0664 H       1  UNL1        0.0618
     50 H          -5.7276   -4.6794   -5.0521 H       1  UNL1        0.0620
     51 H          -5.5983    2.7234   -2.3354 H       1  UNL1        0.0637
     52 H          -4.1850    4.5252   -3.2405 H       1  UNL1        0.0618
     53 H          -4.1164    4.9347   -5.6676 H       1  UNL1        0.0618
     54 H          -5.4604    3.5418   -7.1897 H       1  UNL1        0.0618
     55 H          -6.8702    1.7370   -6.2849 H       1  UNL1        0.0637
@<TRIPOS>BOND
     1     1     2    1
     2     1    28    1
     3     1    29    1
     4     1    30    1
     5     2     3    1
     6     2     4    1
     7     2    31    1
     8     3    32    1
     9     3    33    1
    10     3    34    1
    11     4     5    1
    12     4    35    1
    13     4    36    1
    14     5     6    1
    15     5    37    1
    16     5    38    1
    17     6     7   am
    18     6    39    1
    19     7     8    2
    20     7     9    1
    21     9    10    1
    22     9    40    1
    23     9    41    1
    24    10    11    1
    25    19    10    1
    26    11    12    1
    27    11    42    1
    28    11    43    1
    29    12    13    1
    30    12    44    1
    31    12    45    1
    32    13    18   ar
    33    13    14   ar
    34    14    15   ar
    35    14    46    1
    36    15    16   ar
    37    15    47    1
    38    16    17   ar
    39    16    48    1
    40    17    18   ar
    41    17    49    1
    42    18    50    1
    43    19    20    2
    44    19    21    2
    45    19    22    1
    46    22    27   ar
    47    22    23   ar
    48    23    24   ar
    49    23    51    1
    50    24    25   ar
    51    24    52    1
    52    25    26   ar
    53    25    53    1
    54    26    27   ar
    55    26    54    1
    56    27    55    1
