@<TRIPOS>MOLECULE
ZINC000019930086
 48 49 0 0 0
SMALL
GASTEIGER

@<TRIPOS>ATOM
      1 C          -0.0187    1.5258    0.0104 C.3     1  UNL1       -0.0507
      2 C           0.0021   -0.0041    0.0020 C.3     1  UNL1        0.0182
      3 N          -1.3723   -0.5112    0.0124 N.3     1  UNL1       -0.1681
      4 C          -2.1099   -0.6542   -1.2453 C.3     1  UNL1        0.0968
      5 C          -1.7778   -1.9829   -1.8740 C.2     1  UNL1        0.2289
      6 O          -1.0015   -2.7362   -1.3256 O.2     1  UNL1       -0.2743
      7 N          -2.3435   -2.3340   -3.0459 N.am    1  UNL1       -0.3117
      8 C          -2.0207   -3.6257   -3.6571 C.3     1  UNL1        0.0379
      9 C          -2.7910   -3.7751   -4.9706 C.3     1  UNL1        0.0742
     10 H          -3.8560   -3.6248   -4.7937 H       1  UNL1        0.0611
     11 C          -2.5514   -5.1812   -5.5612 C.3     1  UNL1       -0.0231
     12 C          -2.4381   -4.8851   -7.0816 C.3     1  UNL1       -0.0271
     13 C          -1.7541   -3.4950   -7.0604 C.3     1  UNL1        0.0482
     14 O          -2.3167   -2.8167   -5.9237 O.3     1  UNL1       -0.3750
     15 S          -2.0922   -0.9227    1.4458 S.O2    1  UNL1        0.0613
     16 O          -3.1196   -1.8512    1.1269 O.2     1  UNL1       -0.1528
     17 O          -1.0393   -1.2108    2.3555 O.2     1  UNL1       -0.1528
     18 C          -2.8978    0.5199    2.0580 C.ar    1  UNL1        0.1071
     19 C          -2.2144    1.3946    2.8819 C.ar    1  UNL1       -0.0318
     20 C          -2.8434    2.5271    3.3632 C.ar    1  UNL1       -0.0166
     21 C          -4.1614    2.7862    3.0193 C.ar    1  UNL1        0.1384
     22 O          -4.7819    3.8997    3.4912 O.3     1  UNL1       -0.4936
     23 C          -4.0161    4.7599    4.3371 C.3     1  UNL1        0.0789
     24 C          -4.8462    1.9064    2.1916 C.ar    1  UNL1        0.0844
     25 CL         -6.4965    2.2268    1.7583 Cl      1  UNL1       -0.0797
     26 C          -4.2107    0.7779    1.7087 C.ar    1  UNL1       -0.0134
     27 H           1.0039    1.9031    0.0027 H       1  UNL1        0.0243
     28 H          -0.5459    1.8868   -0.8726 H       1  UNL1        0.0243
     29 H          -0.5289    1.8773    0.9072 H       1  UNL1        0.0243
     30 H           0.5123   -0.3556   -0.8948 H       1  UNL1        0.0441
     31 H           0.5293   -0.3651    0.8851 H       1  UNL1        0.0441
     32 H          -3.1804   -0.6037   -1.0465 H       1  UNL1        0.0539
     33 H          -1.8283    0.1500   -1.9251 H       1  UNL1        0.0539
     34 H          -2.9644   -1.7315   -3.4845 H       1  UNL1        0.1488
     35 H          -0.9502   -3.6762   -3.8559 H       1  UNL1        0.0487
     36 H          -2.3023   -4.4299   -2.9773 H       1  UNL1        0.0487
     37 H          -1.6248   -5.6096   -5.1793 H       1  UNL1        0.0291
     38 H          -3.3971   -5.8374   -5.3558 H       1  UNL1        0.0291
     39 H          -1.8108   -5.6241   -7.5800 H       1  UNL1        0.0288
     40 H          -3.4229   -4.8314   -7.5458 H       1  UNL1        0.0288
     41 H          -0.6763   -3.6055   -6.9406 H       1  UNL1        0.0560
     42 H          -1.9797   -2.9483   -7.9760 H       1  UNL1        0.0560
     43 H          -1.1879    1.1925    3.1500 H       1  UNL1        0.0638
     44 H          -2.3087    3.2097    4.0071 H       1  UNL1        0.0655
     45 H          -4.6285    5.6082    4.6426 H       1  UNL1        0.0660
     46 H          -3.6935    4.2080    5.2199 H       1  UNL1        0.0660
     47 H          -3.1422    5.1195    3.7940 H       1  UNL1        0.0660
     48 H          -4.7424    0.0932    1.0646 H       1  UNL1        0.0653
@<TRIPOS>BOND
     1     1     2    1
     2     1    27    1
     3     1    28    1
     4     1    29    1
     5     2     3    1
     6     2    30    1
     7     2    31    1
     8     3     4    1
     9    15     3    1
    10     4     5    1
    11     4    32    1
    12     4    33    1
    13     5     6    2
    14     5     7   am
    15     7     8    1
    16     7    34    1
    17     8     9    1
    18     8    35    1
    19     8    36    1
    20     9    10    1
    21     9    14    1
    22     9    11    1
    23    11    12    1
    24    11    37    1
    25    11    38    1
    26    12    13    1
    27    12    39    1
    28    12    40    1
    29    13    14    1
    30    13    41    1
    31    13    42    1
    32    15    16    2
    33    15    17    2
    34    15    18    1
    35    18    26   ar
    36    18    19   ar
    37    19    20   ar
    38    19    43    1
    39    20    21   ar
    40    20    44    1
    41    21    22    1
    42    21    24   ar
    43    22    23    1
    44    23    45    1
    45    23    46    1
    46    23    47    1
    47    24    25    1
    48    24    26   ar
    49    26    48    1
