@<TRIPOS>MOLECULE
ZINC000072108397
 37 38 0 0 0
SMALL
GASTEIGER

@<TRIPOS>ATOM
      1 C          -0.0184    1.5028    0.0103 C.3     1  UNL1        0.0124
      2 C           0.0021   -0.0041    0.0020 C.2     1  UNL1        0.2125
      3 O           1.0605   -0.5961   -0.0113 O.2     1  UNL1       -0.2759
      4 N          -1.1558   -0.6938    0.0094 N.am    1  UNL1       -0.2992
      5 C          -2.4458    0.0103    0.0193 C.3     1  UNL1        0.0291
      6 C          -3.2812   -0.4806   -1.1695 C.3     1  UNL1        0.0363
      7 N          -3.2765   -1.9502   -1.1718 N.3     1  UNL1       -0.1736
      8 S          -4.6992   -2.7976   -1.1639 S.O2    1  UNL1        0.0609
      9 O          -4.4009   -4.0775   -0.6233 O.2     1  UNL1       -0.1528
     10 O          -5.6799   -1.9301   -0.6117 O.2     1  UNL1       -0.1528
     11 C          -5.1582   -3.0620   -2.8444 C.ar    1  UNL1        0.1055
     12 C          -5.9462   -2.1344   -3.4998 C.ar    1  UNL1       -0.0348
     13 C          -6.3063   -2.3417   -4.8182 C.ar    1  UNL1       -0.0483
     14 C          -5.8781   -3.4765   -5.4813 C.ar    1  UNL1        0.0549
     15 C          -6.2710   -3.7028   -6.9185 C.3     1  UNL1        0.4174
     16 F          -5.3101   -3.1324   -7.7601 F       1  UNL1       -0.1659
     17 F          -6.3533   -5.0768   -7.1686 F       1  UNL1       -0.1659
     18 F          -7.5145   -3.1094   -7.1609 F       1  UNL1       -0.1659
     19 C          -5.0890   -4.4035   -4.8264 C.ar    1  UNL1       -0.0483
     20 C          -4.7257   -4.1942   -3.5091 C.ar    1  UNL1       -0.0348
     21 C          -1.9865   -2.6543   -1.1817 C.3     1  UNL1        0.0363
     22 C          -1.1511   -2.1634    0.0014 C.3     1  UNL1        0.0291
     23 H           1.0042    1.8801    0.0026 H       1  UNL1        0.0323
     24 H          -0.5455    1.8639   -0.8728 H       1  UNL1        0.0323
     25 H          -0.5286    1.8543    0.9071 H       1  UNL1        0.0323
     26 H          -2.9722   -0.2036    0.9495 H       1  UNL1        0.0478
     27 H          -2.2775    1.0835   -0.0702 H       1  UNL1        0.0478
     28 H          -4.3046   -0.1182   -1.0719 H       1  UNL1        0.0459
     29 H          -2.8470   -0.1119   -2.0989 H       1  UNL1        0.0459
     30 H          -6.2808   -1.2478   -2.9816 H       1  UNL1        0.0637
     31 H          -6.9225   -1.6173   -5.3300 H       1  UNL1        0.0624
     32 H          -4.7541   -5.2898   -5.3446 H       1  UNL1        0.0624
     33 H          -4.1092   -4.9184   -2.9974 H       1  UNL1        0.0637
     34 H          -2.1549   -3.7275   -1.0922 H       1  UNL1        0.0459
     35 H          -1.4602   -2.4404   -2.1119 H       1  UNL1        0.0459
     36 H          -0.1281   -2.5265   -0.0974 H       1  UNL1        0.0478
     37 H          -1.5839   -2.5303    0.9321 H       1  UNL1        0.0478
@<TRIPOS>BOND
     1     1     2    1
     2     1    23    1
     3     1    24    1
     4     1    25    1
     5     2     3    2
     6     2     4   am
     7     4    22    1
     8     4     5    1
     9     5     6    1
    10     5    26    1
    11     5    27    1
    12     6     7    1
    13     6    28    1
    14     6    29    1
    15     8     7    1
    16     7    21    1
    17     8     9    2
    18     8    10    2
    19     8    11    1
    20    11    20   ar
    21    11    12   ar
    22    12    13   ar
    23    12    30    1
    24    13    14   ar
    25    13    31    1
    26    14    15    1
    27    14    19   ar
    28    15    16    1
    29    15    17    1
    30    15    18    1
    31    19    20   ar
    32    19    32    1
    33    20    33    1
    34    21    22    1
    35    21    34    1
    36    21    35    1
    37    22    36    1
    38    22    37    1
