@<TRIPOS>MOLECULE
ZINC000090608971
 46 47 0 0 0
SMALL
GASTEIGER

@<TRIPOS>ATOM
      1 C          -2.3105    1.5115   -0.9257 C.3     1  UNL1       -0.0433
      2 N          -2.0575    0.0956   -1.2245 N.4     1  UNL1        0.2321
      3 H          -2.9306   -0.4101   -1.2212 H       1  UNL1        0.2028
      4 C          -1.4291   -0.0209   -2.5472 C.3     1  UNL1       -0.0433
      5 C          -1.1617   -0.4674   -0.2054 C.3     1  UNL1       -0.0140
      6 C          -1.0112   -1.9727   -0.4342 C.3     1  UNL1        0.0806
      7 H          -0.7213   -2.1606   -1.4680 H       1  UNL1        0.0541
      8 C          -2.3446   -2.6804   -0.1315 C.3     1  UNL1        0.0159
      9 S          -2.4547   -4.2539   -0.8836 S.3     1  UNL1       -0.1589
     10 C          -1.0724   -5.2065   -0.1551 C.3     1  UNL1       -0.0051
     11 C           0.2313   -4.7577   -0.7357 C.3     1  UNL1       -0.0295
     12 C           0.8847   -3.5877    0.0455 C.3     1  UNL1        0.0218
     13 N          -0.0182   -2.4978    0.4482 N.3     1  UNL1       -0.1676
     14 S           0.1193   -1.8618    1.9710 S.O2    1  UNL1        0.0613
     15 O          -1.1768   -1.4064    2.3343 O.2     1  UNL1       -0.1528
     16 O           0.8534   -2.8078    2.7362 O.2     1  UNL1       -0.1528
     17 C           1.1343   -0.4268    1.8473 C.ar    1  UNL1        0.1055
     18 C           2.5108   -0.5527    1.8370 C.ar    1  UNL1       -0.0348
     19 C           3.3071    0.5731    1.7399 C.ar    1  UNL1       -0.0483
     20 C           2.7268    1.8247    1.6526 C.ar    1  UNL1        0.0549
     21 C           3.5949    3.0520    1.5472 C.3     1  UNL1        0.4174
     22 F           3.8455    3.3317    0.1996 F       1  UNL1       -0.1659
     23 F           2.9390    4.1390    2.1349 F       1  UNL1       -0.1659
     24 F           4.8062    2.8248    2.2093 F       1  UNL1       -0.1659
     25 C           1.3502    1.9505    1.6615 C.ar    1  UNL1       -0.0483
     26 C           0.5539    0.8244    1.7547 C.ar    1  UNL1       -0.0348
     27 H          -2.9033    1.9517   -1.7275 H       1  UNL1        0.0777
     28 H          -2.8549    1.5926    0.0152 H       1  UNL1        0.0777
     29 H          -1.3612    2.0407   -0.8430 H       1  UNL1        0.0777
     30 H          -1.3355   -1.0738   -2.8135 H       1  UNL1        0.0777
     31 H          -2.0453    0.4879   -3.2884 H       1  UNL1        0.0777
     32 H          -0.4400    0.4365   -2.5211 H       1  UNL1        0.0777
     33 H          -0.1846    0.0104   -0.2766 H       1  UNL1        0.0831
     34 H          -1.5813   -0.2906    0.7849 H       1  UNL1        0.0831
     35 H          -2.4442   -2.7979    0.9476 H       1  UNL1        0.0394
     36 H          -3.1636   -2.0588   -0.4933 H       1  UNL1        0.0394
     37 H          -1.0583   -5.0538    0.9241 H       1  UNL1        0.0377
     38 H          -1.2148   -6.2666   -0.3648 H       1  UNL1        0.0377
     39 H           0.9205   -5.6021   -0.7410 H       1  UNL1        0.0286
     40 H           0.0643   -4.4403   -1.7650 H       1  UNL1        0.0286
     41 H           1.3482   -3.9955    0.9438 H       1  UNL1        0.0444
     42 H           1.6737   -3.1630   -0.5752 H       1  UNL1        0.0444
     43 H           2.9642   -1.5305    1.9052 H       1  UNL1        0.0637
     44 H           4.3826    0.4748    1.7326 H       1  UNL1        0.0624
     45 H           0.8969    2.9283    1.5929 H       1  UNL1        0.0624
     46 H          -0.5216    0.9226    1.7616 H       1  UNL1        0.0637
@<TRIPOS>UNITY_ATOM_ATTR
2 1
charge 1
@<TRIPOS>BOND
     1     1     2    1
     2     1    27    1
     3     1    28    1
     4     1    29    1
     5     2     3    1
     6     2     4    1
     7     2     5    1
     8     4    30    1
     9     4    31    1
    10     4    32    1
    11     5     6    1
    12     5    33    1
    13     5    34    1
    14     6     7    1
    15     6    13    1
    16     6     8    1
    17     8     9    1
    18     8    35    1
    19     8    36    1
    20     9    10    1
    21    10    11    1
    22    10    37    1
    23    10    38    1
    24    11    12    1
    25    11    39    1
    26    11    40    1
    27    12    13    1
    28    12    41    1
    29    12    42    1
    30    14    13    1
    31    14    15    2
    32    14    16    2
    33    14    17    1
    34    17    26   ar
    35    17    18   ar
    36    18    19   ar
    37    18    43    1
    38    19    20   ar
    39    19    44    1
    40    20    21    1
    41    20    25   ar
    42    21    22    1
    43    21    23    1
    44    21    24    1
    45    25    26   ar
    46    25    45    1
    47    26    46    1
