@<TRIPOS>MOLECULE
ZINC000408616931
 50 50 0 0 0
SMALL
GASTEIGER

@<TRIPOS>ATOM
      1 C          -0.0187    1.5258    0.0104 C.3     1  UNL1       -0.0507
      2 C           0.0021   -0.0041    0.0020 C.3     1  UNL1        0.0177
      3 N          -1.3723   -0.5112    0.0124 N.3     1  UNL1       -0.1771
      4 C          -2.1099   -0.6542   -1.2453 C.3     1  UNL1        0.0177
      5 C          -1.7727   -2.0031   -1.8836 C.3     1  UNL1       -0.0507
      6 S          -2.0922   -0.9227    1.4458 S.O2    1  UNL1        0.0608
      7 O          -3.1196   -1.8512    1.1269 O.2     1  UNL1       -0.1528
      8 O          -1.0393   -1.2108    2.3555 O.2     1  UNL1       -0.1528
      9 C          -2.8978    0.5199    2.0580 C.ar    1  UNL1        0.1057
     10 C          -2.2144    1.3948    2.8821 C.ar    1  UNL1       -0.0319
     11 C          -2.8437    2.5265    3.3633 C.ar    1  UNL1       -0.0181
     12 C          -4.1624    2.7850    3.0187 C.ar    1  UNL1        0.1213
     13 O          -4.7836    3.8979    3.4905 O.3     1  UNL1       -0.4828
     14 C          -6.1417    4.0999    3.0945 C.3     1  UNL1        0.1651
     15 C          -6.6600    5.3744    3.7095 C.2     1  UNL1        0.2509
     16 O          -5.9375    6.0437    4.4172 O.2     1  UNL1       -0.2721
     17 N          -7.9264    5.7703    3.4731 N.am    1  UNL1       -0.3077
     18 C          -8.4302    7.0092    4.0709 C.3     1  UNL1        0.0437
     19 H          -7.6264    7.7440    4.1159 H       1  UNL1        0.0518
     20 C          -8.9392    6.7229    5.4850 C.3     1  UNL1       -0.0445
     21 C          -9.5757    7.5581    3.2179 C.3     1  UNL1        0.0654
     22 O         -10.6755    6.6464    3.2539 O.3     1  UNL1       -0.3812
     23 C         -11.8043    7.0668    2.4850 C.3     1  UNL1        0.0365
     24 C          -4.8459    1.9058    2.1913 C.ar    1  UNL1       -0.0181
     25 C          -4.2105    0.7780    1.7088 C.ar    1  UNL1       -0.0319
     26 H           1.0039    1.9031    0.0027 H       1  UNL1        0.0243
     27 H          -0.5459    1.8868   -0.8726 H       1  UNL1        0.0243
     28 H          -0.5289    1.8773    0.9072 H       1  UNL1        0.0243
     29 H           0.5123   -0.3556   -0.8948 H       1  UNL1        0.0441
     30 H           0.5293   -0.3651    0.8851 H       1  UNL1        0.0441
     31 H          -3.1804   -0.6037   -1.0465 H       1  UNL1        0.0441
     32 H          -1.8283    0.1500   -1.9251 H       1  UNL1        0.0441
     33 H          -2.3215   -2.1096   -2.8194 H       1  UNL1        0.0243
     34 H          -0.7022   -2.0536   -2.0825 H       1  UNL1        0.0243
     35 H          -2.0544   -2.8073   -1.2038 H       1  UNL1        0.0243
     36 H          -1.1877    1.1931    3.1500 H       1  UNL1        0.0638
     37 H          -2.3096    3.2093    4.0075 H       1  UNL1        0.0655
     38 H          -6.1966    4.1721    2.0083 H       1  UNL1        0.0795
     39 H          -6.7479    3.2600    3.4339 H       1  UNL1        0.0795
     40 H          -8.5043    5.2349    2.9071 H       1  UNL1        0.1491
     41 H          -9.7431    5.9881    5.4400 H       1  UNL1        0.0248
     42 H          -8.1232    6.3319    6.0927 H       1  UNL1        0.0248
     43 H          -9.3141    7.6447    5.9298 H       1  UNL1        0.0248
     44 H          -9.8915    8.5241    3.6118 H       1  UNL1        0.0578
     45 H          -9.2370    7.6784    2.1889 H       1  UNL1        0.0578
     46 H         -12.5957    6.3214    2.5640 H       1  UNL1        0.0523
     47 H         -12.1663    8.0226    2.8637 H       1  UNL1        0.0523
     48 H         -11.5119    7.1769    1.4407 H       1  UNL1        0.0523
     49 H          -5.8726    2.1046    1.9219 H       1  UNL1        0.0655
     50 H          -4.7420    0.0934    1.0644 H       1  UNL1        0.0638
@<TRIPOS>BOND
     1     1     2    1
     2     1    26    1
     3     1    27    1
     4     1    28    1
     5     2     3    1
     6     2    29    1
     7     2    30    1
     8     3     4    1
     9     6     3    1
    10     4     5    1
    11     4    31    1
    12     4    32    1
    13     5    33    1
    14     5    34    1
    15     5    35    1
    16     6     7    2
    17     6     8    2
    18     6     9    1
    19     9    25   ar
    20     9    10   ar
    21    10    11   ar
    22    10    36    1
    23    11    12   ar
    24    11    37    1
    25    12    13    1
    26    12    24   ar
    27    13    14    1
    28    14    15    1
    29    14    38    1
    30    14    39    1
    31    15    16    2
    32    15    17   am
    33    17    18    1
    34    17    40    1
    35    18    19    1
    36    18    20    1
    37    18    21    1
    38    20    41    1
    39    20    42    1
    40    20    43    1
    41    21    22    1
    42    21    44    1
    43    21    45    1
    44    22    23    1
    45    23    46    1
    46    23    47    1
    47    23    48    1
    48    24    25   ar
    49    24    49    1
    50    25    50    1
