@<TRIPOS>MOLECULE
ZINC000004785190
 46 48 0 0 0
SMALL
GASTEIGER

@<TRIPOS>ATOM
      1 C          -0.3346   -3.4046    4.4549 C.3     1  UNL1       -0.0171
      2 C          -0.8174   -1.9896    4.6438 C.ar    1  UNL1        0.1071
      3 N          -1.7288   -1.5815    5.4788 N.ar    1  UNL1       -0.0813
      4 O          -1.9011   -0.3871    5.4012 O.2     1  UNL1       -0.3576
      5 C          -1.1029    0.1668    4.4778 C.ar    1  UNL1        0.1607
      6 C          -1.0343    1.6246    4.1018 C.3     1  UNL1       -0.0017
      7 C          -0.3657   -0.8414    3.9535 C.ar    1  UNL1        0.1696
      8 S           0.8638   -0.7457    2.6950 S.O2    1  UNL1        0.0666
      9 O           0.8520   -1.9995    2.0264 O.2     1  UNL1       -0.1527
     10 O           0.6600    0.4926    2.0283 O.2     1  UNL1       -0.1527
     11 N           2.3323   -0.6331    3.4519 N.3     1  UNL1       -0.1646
     12 C           3.1296   -1.7672    3.9534 C.3     1  UNL1        0.0214
     13 C           4.5879   -1.2452    3.9811 C.3     1  UNL1       -0.0366
     14 C           4.3831    0.2279    4.4231 C.3     1  UNL1       -0.0260
     15 C           3.0599    0.6140    3.7294 C.3     1  UNL1        0.1081
     16 H           2.4654    1.2450    4.3900 H       1  UNL1        0.0576
     17 C           3.3496    1.3468    2.4448 C.2     1  UNL1        0.2361
     18 O           3.4359    0.7326    1.4025 O.2     1  UNL1       -0.2737
     19 N           3.5127    2.6846    2.4542 N.am    1  UNL1       -0.2841
     20 C           3.6440    3.3819    1.2482 C.ar    1  UNL1        0.0340
     21 C           2.9889    2.9320    0.1095 C.ar    1  UNL1       -0.0405
     22 C           3.1206    3.6226   -1.0795 C.ar    1  UNL1       -0.0595
     23 C           3.9041    4.7604   -1.1368 C.ar    1  UNL1       -0.0500
     24 C           4.5583    5.2108   -0.0045 C.ar    1  UNL1        0.0566
     25 C           5.4112    6.4513   -0.0714 C.3     1  UNL1        0.4175
     26 F           5.3854    6.9654   -1.3723 F       1  UNL1       -0.1659
     27 F           4.9124    7.4088    0.8183 F       1  UNL1       -0.1659
     28 F           6.7277    6.1315    0.2776 F       1  UNL1       -0.1659
     29 C           4.4254    4.5287    1.1888 C.ar    1  UNL1       -0.0288
     30 H           0.5575   -3.5679    5.0595 H       1  UNL1        0.0294
     31 H          -1.1155   -4.0993    4.7644 H       1  UNL1        0.0294
     32 H          -0.0967   -3.5701    3.4041 H       1  UNL1        0.0294
     33 H          -1.7472    2.1888    4.7031 H       1  UNL1        0.0309
     34 H          -0.0275    2.0000    4.2846 H       1  UNL1        0.0309
     35 H          -1.2787    1.7394    3.0458 H       1  UNL1        0.0309
     36 H           2.8066   -2.0436    4.9571 H       1  UNL1        0.0444
     37 H           3.0443   -2.6188    3.2785 H       1  UNL1        0.0444
     38 H           5.1850   -1.7926    4.7105 H       1  UNL1        0.0279
     39 H           5.0401   -1.2967    2.9907 H       1  UNL1        0.0279
     40 H           4.2887    0.2957    5.5069 H       1  UNL1        0.0286
     41 H           5.2003    0.8548    4.0662 H       1  UNL1        0.0286
     42 H           3.5391    3.1641    3.2970 H       1  UNL1        0.1549
     43 H           2.3773    2.0430    0.1534 H       1  UNL1        0.0636
     44 H           2.6113    3.2732   -1.9655 H       1  UNL1        0.0618
     45 H           4.0058    5.2983   -2.0677 H       1  UNL1        0.0623
     46 H           4.9365    4.8809    2.0726 H       1  UNL1        0.0642
@<TRIPOS>BOND
     1     1     2    1
     2     1    30    1
     3     1    31    1
     4     1    32    1
     5     2     7   ar
     6     2     3   ar
     7     3     4   ar
     8     4     5   ar
     9     5     6    1
    10     5     7   ar
    11     6    33    1
    12     6    34    1
    13     6    35    1
    14     7     8    1
    15     8     9    2
    16     8    10    2
    17     8    11    1
    18    11    15    1
    19    11    12    1
    20    12    13    1
    21    12    36    1
    22    12    37    1
    23    13    14    1
    24    13    38    1
    25    13    39    1
    26    14    15    1
    27    14    40    1
    28    14    41    1
    29    15    16    1
    30    15    17    1
    31    17    18    2
    32    17    19   am
    33    19    20    1
    34    19    42    1
    35    20    29   ar
    36    20    21   ar
    37    21    22   ar
    38    21    43    1
    39    22    23   ar
    40    22    44    1
    41    23    24   ar
    42    23    45    1
    43    24    25    1
    44    24    29   ar
    45    25    26    1
    46    25    27    1
    47    25    28    1
    48    29    46    1
