@<TRIPOS>MOLECULE
ZINC000009511985
 51 53 0 0 0
SMALL
GASTEIGER

@<TRIPOS>ATOM
      1 C           0.4962    1.5124    0.5355 C.3     1  UNL1       -0.0381
      2 C          -0.0118    0.1154    0.1731 C.3     1  UNL1        0.0947
      3 H          -1.0942    0.1438    0.0472 H       1  UNL1        0.0591
      4 N           0.3307   -0.8221    1.2454 N.pl3   1  UNL1       -0.3314
      5 C          -0.5081   -0.9510    2.3548 C.ar    1  UNL1        0.0583
      6 C          -1.7013   -0.2423    2.4112 C.ar    1  UNL1       -0.0381
      7 C          -2.5287   -0.3723    3.5096 C.ar    1  UNL1       -0.0482
      8 C          -2.1703   -1.2068    4.5521 C.ar    1  UNL1        0.0571
      9 C          -3.0758   -1.3466    5.7486 C.3     1  UNL1        0.4175
     10 F          -4.2067   -0.5417    5.5741 F       1  UNL1       -0.1659
     11 F          -3.4701   -2.6823    5.8815 F       1  UNL1       -0.1659
     12 F          -2.3912   -0.9456    6.9009 F       1  UNL1       -0.1659
     13 C          -0.9829   -1.9140    4.4991 C.ar    1  UNL1       -0.0180
     14 C          -0.1536   -1.7927    3.4017 C.ar    1  UNL1        0.1474
     15 N           1.1169   -2.5498    3.3458 N.pl3   1  UNL1        0.0583
     16 O           1.5026   -3.0151    2.2883 O.2     1  UNL1       -0.1261
     17 O           1.7768   -2.7077    4.3574 O.2     1  UNL1       -0.1261
     18 C           0.6318   -0.3353   -1.1128 C.2     1  UNL1        0.2356
     19 O           1.6196   -1.0384   -1.0826 O.2     1  UNL1       -0.2736
     20 N           0.1099    0.0430   -2.2964 N.am    1  UNL1       -0.2974
     21 C          -1.0079    0.9956   -2.3507 C.3     1  UNL1        0.0292
     22 C          -0.6056    2.1726   -3.2480 C.3     1  UNL1        0.0364
     23 N          -0.0669    1.6403   -4.5074 N.3     1  UNL1       -0.1731
     24 S          -0.7075    2.1060   -5.9618 S.O2    1  UNL1        0.0672
     25 O          -0.3983    1.0718   -6.8860 O.2     1  UNL1       -0.1523
     26 O          -2.0344    2.5391   -5.6955 O.2     1  UNL1       -0.1523
     27 C           0.1838    3.5303   -6.4922 C.ar    1  UNL1        0.1426
     28 C           1.2833    3.5123   -7.2473 C.ar    1  UNL1       -0.0281
     29 C           1.8109    4.7583   -7.5391 C.ar    1  UNL1       -0.0528
     30 C           1.1400    5.7882   -7.0209 C.ar    1  UNL1       -0.0224
     31 S          -0.2444    5.1936   -6.1135 S.2     1  UNL1       -0.0770
     32 C           1.0509    0.6877   -4.4531 C.3     1  UNL1        0.0364
     33 C           0.6523   -0.4850   -3.5561 C.3     1  UNL1        0.0292
     34 H           1.5624    1.4651    0.7570 H       1  UNL1        0.0252
     35 H           0.3290    2.1886   -0.3029 H       1  UNL1        0.0252
     36 H          -0.0408    1.8787    1.4104 H       1  UNL1        0.0252
     37 H           1.1399   -1.3535    1.1850 H       1  UNL1        0.1469
     38 H          -1.9817    0.4100    1.5974 H       1  UNL1        0.0637
     39 H          -3.4564    0.1787    3.5543 H       1  UNL1        0.0624
     40 H          -0.7059   -2.5650    5.3151 H       1  UNL1        0.0646
     41 H          -1.8879    0.5037   -2.7652 H       1  UNL1        0.0478
     42 H          -1.2278    1.3592   -1.3470 H       1  UNL1        0.0478
     43 H          -1.4798    2.7896   -3.4558 H       1  UNL1        0.0459
     44 H           0.1564    2.7702   -2.7477 H       1  UNL1        0.0459
     45 H           1.7283    2.5950   -7.6037 H       1  UNL1        0.0642
     46 H           2.6988    4.8869   -8.1404 H       1  UNL1        0.0623
     47 H           1.4043    6.8282   -7.1430 H       1  UNL1        0.0694
     48 H           1.2708    0.3241   -5.4569 H       1  UNL1        0.0459
     49 H           1.9309    1.1796   -4.0386 H       1  UNL1        0.0459
     50 H           1.5273   -1.1012   -3.3491 H       1  UNL1        0.0478
     51 H          -0.1103   -1.0838   -4.0542 H       1  UNL1        0.0478
@<TRIPOS>BOND
     1     1     2    1
     2     1    34    1
     3     1    35    1
     4     1    36    1
     5     2     3    1
     6     2     4    1
     7     2    18    1
     8     4     5    1
     9     4    37    1
    10     5    14   ar
    11     5     6   ar
    12     6     7   ar
    13     6    38    1
    14     7     8   ar
    15     7    39    1
    16     8     9    1
    17     8    13   ar
    18     9    10    1
    19     9    11    1
    20     9    12    1
    21    13    14   ar
    22    13    40    1
    23    14    15    1
    24    15    16    2
    25    15    17    2
    26    18    19    2
    27    18    20   am
    28    20    33    1
    29    20    21    1
    30    21    22    1
    31    21    41    1
    32    21    42    1
    33    22    23    1
    34    22    43    1
    35    22    44    1
    36    24    23    1
    37    23    32    1
    38    24    25    2
    39    24    26    2
    40    24    27    1
    41    27    31   ar
    42    27    28   ar
    43    28    29   ar
    44    28    45    1
    45    29    30   ar
    46    29    46    1
    47    30    31   ar
    48    30    47    1
    49    32    33    1
    50    32    48    1
    51    32    49    1
    52    33    50    1
    53    33    51    1
