@<TRIPOS>MOLECULE
ZINC000020279413
 64 66 0 0 0
SMALL
GASTEIGER

@<TRIPOS>ATOM
      1 C          -0.0187    1.5258    0.0104 C.3     1  UNL1       -0.0507
      2 C           0.0021   -0.0041    0.0020 C.3     1  UNL1        0.0177
      3 N          -1.3723   -0.5112    0.0124 N.3     1  UNL1       -0.1771
      4 C          -2.1099   -0.6542   -1.2453 C.3     1  UNL1        0.0177
      5 C          -1.7727   -2.0031   -1.8836 C.3     1  UNL1       -0.0507
      6 S          -2.0922   -0.9227    1.4458 S.O2    1  UNL1        0.0609
      7 O          -3.1196   -1.8512    1.1269 O.2     1  UNL1       -0.1528
      8 O          -1.0393   -1.2108    2.3555 O.2     1  UNL1       -0.1528
      9 C          -2.8978    0.5199    2.0580 C.ar    1  UNL1        0.1075
     10 C          -2.2137    1.3940    2.8819 C.ar    1  UNL1       -0.0318
     11 C          -2.8389    2.5292    3.3664 C.ar    1  UNL1       -0.0162
     12 C          -4.1538    2.7907    3.0249 C.ar    1  UNL1        0.1426
     13 O          -4.7833    3.9029    3.4896 O.3     1  UNL1       -0.4809
     14 C          -5.7581    4.4972    2.6285 C.3     1  UNL1        0.1658
     15 C          -6.6622    3.4270    2.0719 C.2     1  UNL1        0.2579
     16 O          -7.8207    3.6805    1.8170 O.2     1  UNL1       -0.2715
     17 N          -6.1769    2.1846    1.8578 N.am    1  UNL1       -0.2565
     18 C          -7.0302    1.1417    1.2829 C.3     1  UNL1        0.0963
     19 C          -6.9137    1.1688   -0.2193 C.2     1  UNL1        0.2310
     20 O          -6.1893    1.9795   -0.7569 O.2     1  UNL1       -0.2741
     21 N          -7.6145    0.2921   -0.9655 N.am    1  UNL1       -0.3114
     22 C          -7.5013    0.3185   -2.4259 C.3     1  UNL1        0.0206
     23 H          -6.4821    0.5841   -2.7066 H       1  UNL1        0.0495
     24 C          -8.4733    1.3545   -2.9941 C.3     1  UNL1       -0.0466
     25 C          -7.8418   -1.0629   -2.9888 C.3     1  UNL1       -0.0308
     26 C          -6.7961   -2.0766   -2.5200 C.3     1  UNL1       -0.0260
     27 C          -7.1315   -3.4371   -3.0745 C.ar    1  UNL1       -0.0473
     28 C          -7.9506   -4.2917   -2.3606 C.ar    1  UNL1       -0.0586
     29 C          -8.2583   -5.5397   -2.8692 C.ar    1  UNL1       -0.0615
     30 C          -7.7471   -5.9330   -4.0919 C.ar    1  UNL1       -0.0617
     31 C          -6.9286   -5.0781   -4.8062 C.ar    1  UNL1       -0.0615
     32 C          -6.6245   -3.8284   -4.2995 C.ar    1  UNL1       -0.0586
     33 C          -4.8442    1.9085    2.1946 C.ar    1  UNL1        0.0806
     34 C          -4.2112    0.7772    1.7081 C.ar    1  UNL1       -0.0103
     35 H           1.0039    1.9031    0.0027 H       1  UNL1        0.0243
     36 H          -0.5459    1.8868   -0.8726 H       1  UNL1        0.0243
     37 H          -0.5289    1.8773    0.9072 H       1  UNL1        0.0243
     38 H           0.5123   -0.3556   -0.8948 H       1  UNL1        0.0441
     39 H           0.5293   -0.3651    0.8851 H       1  UNL1        0.0441
     40 H          -3.1804   -0.6037   -1.0465 H       1  UNL1        0.0441
     41 H          -1.8283    0.1500   -1.9251 H       1  UNL1        0.0441
     42 H          -2.3215   -2.1096   -2.8194 H       1  UNL1        0.0243
     43 H          -0.7022   -2.0536   -2.0825 H       1  UNL1        0.0243
     44 H          -2.0544   -2.8073   -1.2038 H       1  UNL1        0.0243
     45 H          -1.1873    1.1898    3.1487 H       1  UNL1        0.0638
     46 H          -2.3015    3.2097    4.0103 H       1  UNL1        0.0655
     47 H          -6.3516    5.2157    3.1938 H       1  UNL1        0.0795
     48 H          -5.2541    5.0089    1.8086 H       1  UNL1        0.0795
     49 H          -6.7131    0.1672    1.6544 H       1  UNL1        0.0564
     50 H          -8.0663    1.3205    1.5703 H       1  UNL1        0.0564
     51 H          -8.1939   -0.3563   -0.5356 H       1  UNL1        0.1490
     52 H          -9.4925    1.0889   -2.7134 H       1  UNL1        0.0247
     53 H          -8.2307    2.3386   -2.5931 H       1  UNL1        0.0247
     54 H          -8.3890    1.3741   -4.0807 H       1  UNL1        0.0247
     55 H          -8.8268   -1.3668   -2.6347 H       1  UNL1        0.0286
     56 H          -7.8443   -1.0208   -4.0780 H       1  UNL1        0.0286
     57 H          -5.8111   -1.7726   -2.8742 H       1  UNL1        0.0314
     58 H          -6.7936   -2.1186   -1.4308 H       1  UNL1        0.0314
     59 H          -8.3500   -3.9844   -1.4054 H       1  UNL1        0.0620
     60 H          -8.8977   -6.2076   -2.3112 H       1  UNL1        0.0618
     61 H          -7.9868   -6.9083   -4.4889 H       1  UNL1        0.0618
     62 H          -6.5289   -5.3855   -5.7612 H       1  UNL1        0.0618
     63 H          -5.9850   -3.1605   -4.8576 H       1  UNL1        0.0620
     64 H          -4.7425    0.0956    1.0605 H       1  UNL1        0.0657
@<TRIPOS>BOND
     1     1     2    1
     2     1    35    1
     3     1    36    1
     4     1    37    1
     5     2     3    1
     6     2    38    1
     7     2    39    1
     8     3     4    1
     9     6     3    1
    10     4     5    1
    11     4    40    1
    12     4    41    1
    13     5    42    1
    14     5    43    1
    15     5    44    1
    16     6     7    2
    17     6     8    2
    18     6     9    1
    19     9    34   ar
    20     9    10   ar
    21    10    11   ar
    22    10    45    1
    23    11    12   ar
    24    11    46    1
    25    12    33   ar
    26    12    13    1
    27    13    14    1
    28    14    15    1
    29    14    47    1
    30    14    48    1
    31    15    16    2
    32    15    17   am
    33    17    18    1
    34    17    33    1
    35    18    19    1
    36    18    49    1
    37    18    50    1
    38    19    20    2
    39    19    21   am
    40    21    22    1
    41    21    51    1
    42    22    23    1
    43    22    24    1
    44    22    25    1
    45    24    52    1
    46    24    53    1
    47    24    54    1
    48    25    26    1
    49    25    55    1
    50    25    56    1
    51    26    27    1
    52    26    57    1
    53    26    58    1
    54    27    32   ar
    55    27    28   ar
    56    28    29   ar
    57    28    59    1
    58    29    30   ar
    59    29    60    1
    60    30    31   ar
    61    30    61    1
    62    31    32   ar
    63    31    62    1
    64    32    63    1
    65    33    34   ar
    66    34    64    1
