@<TRIPOS>MOLECULE
ZINC000039986224
 62 63 0 0 0
SMALL
GASTEIGER

@<TRIPOS>ATOM
      1 C          -0.0187    1.5258    0.0104 C.3     1  UNL1       -0.0307
      2 C           0.0021   -0.0041    0.0020 C.3     1  UNL1        0.0868
      3 O          -1.3386   -0.4987    0.0122 O.3     1  UNL1       -0.4920
      4 C          -1.4983   -1.8483    0.0064 C.ar    1  UNL1        0.1235
      5 C          -0.3877   -2.6793   -0.0028 C.ar    1  UNL1       -0.0178
      6 C          -0.5528   -4.0510   -0.0082 C.ar    1  UNL1       -0.0319
      7 C          -1.8235   -4.5955   -0.0047 C.ar    1  UNL1        0.1060
      8 S          -2.0307   -6.3452   -0.0121 S.O2    1  UNL1        0.0613
      9 O          -3.3215   -6.5942   -0.5516 O.2     1  UNL1       -0.1528
     10 O          -0.8394   -6.8880   -0.5648 O.2     1  UNL1       -0.1528
     11 N          -2.0808   -6.8396    1.5676 N.3     1  UNL1       -0.1681
     12 C          -3.3628   -6.9092    2.2731 C.3     1  UNL1        0.0182
     13 C          -3.9134   -8.3343    2.1911 C.3     1  UNL1       -0.0507
     14 C          -0.8430   -7.2074    2.2596 C.3     1  UNL1        0.0968
     15 C          -0.3224   -6.0177    3.0242 C.2     1  UNL1        0.2290
     16 O          -0.9258   -4.9661    2.9940 O.2     1  UNL1       -0.2743
     17 N           0.8138   -6.1223    3.7415 N.am    1  UNL1       -0.3116
     18 C           1.3199   -4.9657    4.4848 C.3     1  UNL1        0.0206
     19 H           0.4811   -4.3857    4.8696 H       1  UNL1        0.0495
     20 C           2.1613   -4.0899    3.5542 C.3     1  UNL1       -0.0466
     21 C           2.1845   -5.4477    5.6514 C.3     1  UNL1       -0.0308
     22 C           1.3147   -6.2190    6.6461 C.3     1  UNL1       -0.0260
     23 C           2.1663   -6.6938    7.7952 C.ar    1  UNL1       -0.0473
     24 C           2.7895   -7.9261    7.7307 C.ar    1  UNL1       -0.0586
     25 C           3.5706   -8.3616    8.7847 C.ar    1  UNL1       -0.0615
     26 C           3.7289   -7.5647    9.9031 C.ar    1  UNL1       -0.0617
     27 C           3.1065   -6.3321    9.9673 C.ar    1  UNL1       -0.0615
     28 C           2.3289   -5.8947    8.9114 C.ar    1  UNL1       -0.0586
     29 C          -2.9323   -3.7692    0.0050 C.ar    1  UNL1       -0.0290
     30 C          -2.7726   -2.3972    0.0157 C.ar    1  UNL1       -0.0069
     31 C          -3.9814   -1.4973    0.0267 C.3     1  UNL1       -0.0362
     32 H           1.0039    1.9031    0.0027 H       1  UNL1        0.0262
     33 H          -0.5459    1.8868   -0.8726 H       1  UNL1        0.0262
     34 H          -0.5289    1.8773    0.9072 H       1  UNL1        0.0262
     35 H           0.5123   -0.3556   -0.8948 H       1  UNL1        0.0694
     36 H           0.5293   -0.3651    0.8851 H       1  UNL1        0.0694
     37 H           0.6052   -2.2544   -0.0062 H       1  UNL1        0.0655
     38 H           0.3115   -4.6985   -0.0154 H       1  UNL1        0.0638
     39 H          -3.2179   -6.6352    3.3181 H       1  UNL1        0.0441
     40 H          -4.0695   -6.2195    1.8114 H       1  UNL1        0.0441
     41 H          -4.8673   -8.3861    2.7159 H       1  UNL1        0.0243
     42 H          -4.0584   -8.6082    1.1460 H       1  UNL1        0.0243
     43 H          -3.2068   -9.0239    2.6528 H       1  UNL1        0.0243
     44 H          -1.0431   -8.0251    2.9521 H       1  UNL1        0.0539
     45 H          -0.0986   -7.5239    1.5291 H       1  UNL1        0.0539
     46 H           1.2965   -6.9633    3.7657 H       1  UNL1        0.1490
     47 H           3.0002   -4.6699    3.1694 H       1  UNL1        0.0247
     48 H           1.5454   -3.7465    2.7231 H       1  UNL1        0.0247
     49 H           2.5379   -3.2294    4.1072 H       1  UNL1        0.0247
     50 H           2.9718   -6.1007    5.2747 H       1  UNL1        0.0286
     51 H           2.6328   -4.5887    6.1506 H       1  UNL1        0.0286
     52 H           0.5274   -5.5661    7.0229 H       1  UNL1        0.0314
     53 H           0.8664   -7.0781    6.1469 H       1  UNL1        0.0314
     54 H           2.6657   -8.5487    6.8569 H       1  UNL1        0.0620
     55 H           4.0569   -9.3246    8.7346 H       1  UNL1        0.0618
     56 H           4.3387   -7.9053   10.7269 H       1  UNL1        0.0618
     57 H           3.2300   -5.7096   10.8412 H       1  UNL1        0.0618
     58 H           1.8426   -4.9317    8.9615 H       1  UNL1        0.0620
     59 H          -3.9240   -4.1969    0.0080 H       1  UNL1        0.0641
     60 H          -4.2696   -1.2887    1.0570 H       1  UNL1        0.0279
     61 H          -3.7429   -0.5623   -0.4803 H       1  UNL1        0.0279
     62 H          -4.8059   -1.9900   -0.4886 H       1  UNL1        0.0279
@<TRIPOS>BOND
     1     1     2    1
     2     1    32    1
     3     1    33    1
     4     1    34    1
     5     2     3    1
     6     2    35    1
     7     2    36    1
     8     3     4    1
     9     4    30   ar
    10     4     5   ar
    11     5     6   ar
    12     5    37    1
    13     6     7   ar
    14     6    38    1
    15     7     8    1
    16     7    29   ar
    17     8     9    2
    18     8    10    2
    19     8    11    1
    20    11    12    1
    21    11    14    1
    22    12    13    1
    23    12    39    1
    24    12    40    1
    25    13    41    1
    26    13    42    1
    27    13    43    1
    28    14    15    1
    29    14    44    1
    30    14    45    1
    31    15    16    2
    32    15    17   am
    33    17    18    1
    34    17    46    1
    35    18    19    1
    36    18    20    1
    37    18    21    1
    38    20    47    1
    39    20    48    1
    40    20    49    1
    41    21    22    1
    42    21    50    1
    43    21    51    1
    44    22    23    1
    45    22    52    1
    46    22    53    1
    47    23    28   ar
    48    23    24   ar
    49    24    25   ar
    50    24    54    1
    51    25    26   ar
    52    25    55    1
    53    26    27   ar
    54    26    56    1
    55    27    28   ar
    56    27    57    1
    57    28    58    1
    58    29    30   ar
    59    29    59    1
    60    30    31    1
    61    31    60    1
    62    31    61    1
    63    31    62    1
