@<TRIPOS>MOLECULE
ZINC000328595935
 39 40 0 0 0
SMALL
GASTEIGER

@<TRIPOS>ATOM
      1 C          -0.0187    1.5258    0.0104 C.3     1  UNL1       -0.0586
      2 C           0.0021   -0.0041    0.0020 C.3     1  UNL1       -0.0197
      3 C           0.7421   -0.5109    1.2415 C.3     1  UNL1       -0.0586
      4 C          -1.4117   -0.5257    0.0127 C.ar    1  UNL1       -0.0203
      5 C          -2.2589   -0.2051    1.0549 C.ar    1  UNL1       -0.0565
      6 C          -3.5564   -0.6838    1.0658 C.ar    1  UNL1       -0.0614
      7 C          -4.0100   -1.4842    0.0336 C.ar    1  UNL1       -0.0599
      8 C          -3.1680   -1.8084   -1.0122 C.ar    1  UNL1       -0.0369
      9 C          -1.8660   -1.3250   -1.0289 C.ar    1  UNL1        0.0777
     10 N          -1.0119   -1.6508   -2.0850 N.pl3   1  UNL1       -0.0975
     11 S          -1.5513   -2.6144   -3.3190 S.O2    1  UNL1        0.0951
     12 O          -1.7847   -3.8971   -2.7539 O.2     1  UNL1       -0.1482
     13 O          -2.5528   -1.8712   -4.0001 O.2     1  UNL1       -0.1482
     14 C          -0.2163   -2.8058   -4.4530 C.ar    1  UNL1        0.1520
     15 C           0.3457   -4.0512   -4.6551 C.ar    1  UNL1       -0.0198
     16 C           1.3938   -4.2020   -5.5446 C.ar    1  UNL1        0.0569
     17 C           2.0052   -5.5619   -5.7632 C.3     1  UNL1        0.4175
     18 F           1.3349   -6.2126   -6.8046 F       1  UNL1       -0.1659
     19 F           3.3563   -5.4178   -6.0963 F       1  UNL1       -0.1659
     20 F           1.8919   -6.3180   -4.5915 F       1  UNL1       -0.1659
     21 C           1.8815   -3.1073   -6.2338 C.ar    1  UNL1       -0.0466
     22 C           1.3224   -1.8595   -6.0355 C.ar    1  UNL1       -0.0177
     23 C           0.2675   -1.7065   -5.1478 C.ar    1  UNL1        0.1435
     24 O          -0.2841   -0.4802   -4.9510 O.3     1  UNL1       -0.5048
     25 H           1.0039    1.9031    0.0027 H       1  UNL1        0.0235
     26 H          -0.5459    1.8868   -0.8726 H       1  UNL1        0.0235
     27 H          -0.5289    1.8773    0.9072 H       1  UNL1        0.0235
     28 H           0.5123   -0.3556   -0.8948 H       1  UNL1        0.0344
     29 H           0.7568   -1.6008    1.2356 H       1  UNL1        0.0235
     30 H           1.7647   -0.1336    1.2338 H       1  UNL1        0.0235
     31 H           0.2319   -0.1594    2.1383 H       1  UNL1        0.0235
     32 H          -1.9077    0.4198    1.8627 H       1  UNL1        0.0621
     33 H          -4.2167   -0.4322    1.8825 H       1  UNL1        0.0618
     34 H          -5.0237   -1.8567    0.0454 H       1  UNL1        0.0618
     35 H          -3.5228   -2.4339   -1.8180 H       1  UNL1        0.0637
     36 H          -0.0334   -4.9079   -4.1178 H       1  UNL1        0.0644
     37 H           2.7003   -3.2276   -6.9277 H       1  UNL1        0.0624
     38 H           1.7039   -1.0045   -6.5740 H       1  UNL1        0.0655
     39 H          -1.0168   -0.2780   -5.5487 H       1  UNL1        0.2922
@<TRIPOS>BOND
     1     1     2    1
     2     1    25    1
     3     1    26    1
     4     1    27    1
     5     2     3    1
     6     2     4    1
     7     2    28    1
     8     3    29    1
     9     3    30    1
    10     3    31    1
    11     4     9   ar
    12     4     5   ar
    13     5     6   ar
    14     5    32    1
    15     6     7   ar
    16     6    33    1
    17     7     8   ar
    18     7    34    1
    19     8     9   ar
    20     8    35    1
    21     9    10    1
    22    11    10    1
    23    11    12    2
    24    11    13    2
    25    11    14    1
    26    14    23   ar
    27    14    15   ar
    28    15    16   ar
    29    15    36    1
    30    16    17    1
    31    16    21   ar
    32    17    18    1
    33    17    19    1
    34    17    20    1
    35    21    22   ar
    36    21    37    1
    37    22    23   ar
    38    22    38    1
    39    23    24    1
    40    24    39    1
