@<TRIPOS>MOLECULE
ZINC000001122759
 47 48 0 0 0
SMALL
GASTEIGER

@<TRIPOS>ATOM
      1 C          -0.0369    1.5550    0.0174 C.3     1  UNL1       -0.0613
      2 C          -0.0086    0.0253    0.0014 C.3     1  UNL1       -0.0305
      3 C          -1.4198   -0.5033    0.0122 C.ar    1  UNL1       -0.0474
      4 C          -2.0544   -0.7522    1.2151 C.ar    1  UNL1       -0.0551
      5 C          -3.3480   -1.2368    1.2277 C.ar    1  UNL1       -0.0197
      6 C          -4.0106   -1.4732    0.0320 C.ar    1  UNL1        0.1212
      7 O          -5.2833   -1.9495    0.0418 O.3     1  UNL1       -0.4828
      8 C          -5.9035   -2.1693   -1.2268 C.3     1  UNL1        0.1655
      9 C          -7.3008   -2.6941   -1.0186 C.2     1  UNL1        0.2548
     10 O          -7.7239   -2.8632    0.1054 O.2     1  UNL1       -0.2717
     11 N          -8.0802   -2.9755   -2.0815 N.am    1  UNL1       -0.2827
     12 C          -9.3404   -3.5532   -1.8915 C.ar    1  UNL1        0.0336
     13 C          -9.8278   -4.4765   -2.8073 C.ar    1  UNL1       -0.0386
     14 C         -11.0720   -5.0449   -2.6169 C.ar    1  UNL1       -0.0336
     15 C         -11.8325   -4.6952   -1.5162 C.ar    1  UNL1        0.1056
     16 S         -13.4196   -5.4223   -1.2773 S.O2    1  UNL1        0.0604
     17 O         -14.1539   -4.5228   -0.4582 O.2     1  UNL1       -0.1529
     18 O         -13.8640   -5.8457   -2.5589 O.2     1  UNL1       -0.1529
     19 N         -13.1991   -6.7972   -0.3810 N.3     1  UNL1       -0.1827
     20 C         -13.2487   -6.7338    1.0818 C.3     1  UNL1        0.0086
     21 C         -12.9545   -8.0769   -1.0509 C.3     1  UNL1        0.0086
     22 C         -11.3498   -3.7766   -0.6023 C.ar    1  UNL1       -0.0336
     23 C         -10.1039   -3.2088   -0.7839 C.ar    1  UNL1       -0.0386
     24 C          -3.3718   -1.2222   -1.1737 C.ar    1  UNL1       -0.0197
     25 C          -2.0799   -0.7331   -1.1808 C.ar    1  UNL1       -0.0551
     26 H           0.9838    1.9373    0.0096 H       1  UNL1        0.0233
     27 H          -0.5675    1.9178   -0.8629 H       1  UNL1        0.0233
     28 H          -0.5471    1.8996    0.9169 H       1  UNL1        0.0233
     29 H           0.5016   -0.3192   -0.8981 H       1  UNL1        0.0311
     30 H           0.5220   -0.3375    0.8817 H       1  UNL1        0.0311
     31 H          -1.5381   -0.5681    2.1457 H       1  UNL1        0.0621
     32 H          -3.8429   -1.4318    2.1676 H       1  UNL1        0.0654
     33 H          -5.9465   -1.2299   -1.7778 H       1  UNL1        0.0795
     34 H          -5.3229   -2.8969   -1.7938 H       1  UNL1        0.0795
     35 H          -7.7676   -2.7775   -2.9781 H       1  UNL1        0.1549
     36 H          -9.2346   -4.7495   -3.6675 H       1  UNL1        0.0637
     37 H         -11.4517   -5.7630   -3.3288 H       1  UNL1        0.0638
     38 H         -14.2726   -6.8976    1.4180 H       1  UNL1        0.0408
     39 H         -12.6011   -7.5037    1.5010 H       1  UNL1        0.0408
     40 H         -12.9095   -5.7528    1.4146 H       1  UNL1        0.0408
     41 H         -11.8823   -8.2147   -1.1905 H       1  UNL1        0.0408
     42 H         -13.3485   -8.8884   -0.4391 H       1  UNL1        0.0408
     43 H         -13.4505   -8.0797   -2.0214 H       1  UNL1        0.0408
     44 H         -11.9462   -3.5056    0.2564 H       1  UNL1        0.0638
     45 H          -9.7275   -2.4914   -0.0697 H       1  UNL1        0.0637
     46 H          -3.8854   -1.4057   -2.1058 H       1  UNL1        0.0654
     47 H          -1.5823   -0.5371   -2.1192 H       1  UNL1        0.0621
@<TRIPOS>BOND
     1     1     2    1
     2     1    26    1
     3     1    27    1
     4     1    28    1
     5     2     3    1
     6     2    29    1
     7     2    30    1
     8     3    25   ar
     9     3     4   ar
    10     4     5   ar
    11     4    31    1
    12     5     6   ar
    13     5    32    1
    14     6     7    1
    15     6    24   ar
    16     7     8    1
    17     8     9    1
    18     8    33    1
    19     8    34    1
    20     9    10    2
    21     9    11   am
    22    11    12    1
    23    11    35    1
    24    12    23   ar
    25    12    13   ar
    26    13    14   ar
    27    13    36    1
    28    14    15   ar
    29    14    37    1
    30    15    16    1
    31    15    22   ar
    32    16    17    2
    33    16    18    2
    34    16    19    1
    35    19    20    1
    36    19    21    1
    37    20    38    1
    38    20    39    1
    39    20    40    1
    40    21    41    1
    41    21    42    1
    42    21    43    1
    43    22    23   ar
    44    22    44    1
    45    23    45    1
    46    24    25   ar
    47    24    46    1
    48    25    47    1
