@<TRIPOS>MOLECULE
ZINC000408627012
 50 52 0 0 0
SMALL
GASTEIGER

@<TRIPOS>ATOM
      1 C          -0.0286    1.5524    0.0006 C.3     1  UNL1       -0.0507
      2 C          -0.0172    0.0225   -0.0032 C.3     1  UNL1        0.0177
      3 N           0.6844   -0.4636    1.1875 N.3     1  UNL1       -0.1771
      4 C          -0.0375   -0.6121    2.4536 C.3     1  UNL1        0.0177
      5 C          -0.7333   -1.9743    2.4872 C.3     1  UNL1       -0.0507
      6 S           2.2936   -0.8452    1.1023 S.O2    1  UNL1        0.0608
      7 O           2.5450   -1.7622    2.1583 O.2     1  UNL1       -0.1528
      8 O           2.5650   -1.1372   -0.2617 O.2     1  UNL1       -0.1528
      9 C           3.1976    0.6173    1.4875 C.ar    1  UNL1        0.1057
     10 C           3.5564    1.4926    0.4791 C.ar    1  UNL1       -0.0319
     11 C           4.2651    2.6400    0.7786 C.ar    1  UNL1       -0.0181
     12 C           4.6166    2.9138    2.0924 C.ar    1  UNL1        0.1213
     13 O           5.3134    4.0420    2.3896 O.3     1  UNL1       -0.4828
     14 C           5.6409    4.2593    3.7635 C.3     1  UNL1        0.1655
     15 C           6.4078    5.5495    3.8991 C.2     1  UNL1        0.2548
     16 O           6.6501    6.2172    2.9159 O.2     1  UNL1       -0.2717
     17 N           6.8245    5.9613    5.1129 N.am    1  UNL1       -0.2826
     18 C           7.6197    7.1090    5.2283 C.ar    1  UNL1        0.0372
     19 C           8.6148    7.1696    6.1941 C.ar    1  UNL1       -0.0368
     20 C           9.3999    8.3013    6.3095 C.ar    1  UNL1       -0.0144
     21 C           9.1961    9.3779    5.4622 C.ar    1  UNL1        0.1663
     22 O           9.8221   10.5886    5.3717 O.3     1  UNL1       -0.4526
     23 C           9.4714   11.1065    4.0748 C.3     1  UNL1        0.2332
     24 O           8.1995   10.4932    3.7939 O.3     1  UNL1       -0.4525
     25 C           8.1983    9.3198    4.4915 C.ar    1  UNL1        0.1680
     26 C           7.4163    8.1835    4.3729 C.ar    1  UNL1        0.0051
     27 C           4.2550    2.0341    3.1024 C.ar    1  UNL1       -0.0181
     28 C           3.5421    0.8906    2.7984 C.ar    1  UNL1       -0.0319
     29 H           0.9963    1.9234   -0.0048 H       1  UNL1        0.0243
     30 H          -0.5506    1.9141   -0.8852 H       1  UNL1        0.0243
     31 H          -0.5396    1.9097    0.8947 H       1  UNL1        0.0243
     32 H          -1.0421   -0.3485    0.0023 H       1  UNL1        0.0441
     33 H           0.4938   -0.3348   -0.8972 H       1  UNL1        0.0441
     34 H           0.6660   -0.5428    3.2833 H       1  UNL1        0.0441
     35 H          -0.7825    0.1787    2.5419 H       1  UNL1        0.0441
     36 H          -1.2705   -2.0848    3.4292 H       1  UNL1        0.0243
     37 H          -1.4368   -2.0436    1.6575 H       1  UNL1        0.0243
     38 H           0.0117   -2.7651    2.3989 H       1  UNL1        0.0243
     39 H           3.2825    1.2790   -0.5435 H       1  UNL1        0.0638
     40 H           4.5457    3.3230   -0.0095 H       1  UNL1        0.0655
     41 H           4.7244    4.3179    4.3506 H       1  UNL1        0.0795
     42 H           6.2526    3.4332    4.1262 H       1  UNL1        0.0795
     43 H           6.5738    5.4632    5.9065 H       1  UNL1        0.1549
     44 H           8.7755    6.3317    6.8563 H       1  UNL1        0.0637
     45 H          10.1733    8.3463    7.0619 H       1  UNL1        0.0656
     46 H           9.3740   12.1916    4.1093 H       1  UNL1        0.1166
     47 H          10.2117   10.8109    3.3314 H       1  UNL1        0.1166
     48 H           6.6455    8.1346    3.6179 H       1  UNL1        0.0674
     49 H           4.5277    2.2449    4.1260 H       1  UNL1        0.0655
     50 H           3.2601    0.2056    3.5843 H       1  UNL1        0.0638
@<TRIPOS>BOND
     1     1     2    1
     2     1    29    1
     3     1    30    1
     4     1    31    1
     5     2     3    1
     6     2    32    1
     7     2    33    1
     8     3     4    1
     9     6     3    1
    10     4     5    1
    11     4    34    1
    12     4    35    1
    13     5    36    1
    14     5    37    1
    15     5    38    1
    16     6     7    2
    17     6     8    2
    18     6     9    1
    19     9    28   ar
    20     9    10   ar
    21    10    11   ar
    22    10    39    1
    23    11    12   ar
    24    11    40    1
    25    12    13    1
    26    12    27   ar
    27    13    14    1
    28    14    15    1
    29    14    41    1
    30    14    42    1
    31    15    16    2
    32    15    17   am
    33    17    18    1
    34    17    43    1
    35    18    26   ar
    36    18    19   ar
    37    19    20   ar
    38    19    44    1
    39    20    21   ar
    40    20    45    1
    41    21    25   ar
    42    21    22    1
    43    22    23    1
    44    23    24    1
    45    23    46    1
    46    23    47    1
    47    24    25    1
    48    25    26   ar
    49    26    48    1
    50    27    28   ar
    51    27    49    1
    52    28    50    1
