@<TRIPOS>MOLECULE
ZINC000003004194
 53 54 0 0 0
SMALL
GASTEIGER

@<TRIPOS>ATOM
      1 C          -0.0173    1.4248    0.0099 C.3     1  UNL1        0.0365
      2 O           0.0021   -0.0041    0.0020 O.3     1  UNL1       -0.3814
      3 C           0.6734   -0.5824    1.1231 C.3     1  UNL1        0.0628
      4 C           0.6327   -2.1077    1.0107 C.3     1  UNL1        0.0350
      5 N           1.4013   -2.5316   -0.1622 N.am    1  UNL1       -0.3120
      6 C           1.5054   -3.8414   -0.4623 C.2     1  UNL1        0.2289
      7 O           0.9628   -4.6691    0.2386 O.2     1  UNL1       -0.2743
      8 C           2.2961   -4.2775   -1.6689 C.3     1  UNL1        0.0971
      9 N           2.2571   -5.7380   -1.7765 N.3     1  UNL1       -0.1635
     10 C           1.1335   -6.3930   -2.4509 C.3     1  UNL1        0.0460
     11 C           1.3935   -6.4350   -3.9347 C.ar    1  UNL1       -0.0316
     12 C           0.9750   -5.3919   -4.7395 C.ar    1  UNL1       -0.0570
     13 C           1.2134   -5.4303   -6.1005 C.ar    1  UNL1       -0.0585
     14 C           1.8708   -6.5117   -6.6568 C.ar    1  UNL1       -0.0504
     15 C           2.1304   -6.5538   -8.1407 C.3     1  UNL1       -0.0397
     16 C           2.2906   -7.5541   -5.8518 C.ar    1  UNL1       -0.0585
     17 C           2.0555   -7.5139   -4.4902 C.ar    1  UNL1       -0.0570
     18 S           3.4831   -6.6485   -1.1360 S.O2    1  UNL1        0.0616
     19 O           3.5746   -7.8186   -1.9370 O.2     1  UNL1       -0.1528
     20 O           4.5741   -5.7623   -0.9272 O.2     1  UNL1       -0.1528
     21 C           2.9598   -7.1783    0.4609 C.ar    1  UNL1        0.1055
     22 C           3.2283   -6.3985    1.5702 C.ar    1  UNL1       -0.0351
     23 C           2.8178   -6.8141    2.8231 C.ar    1  UNL1       -0.0570
     24 C           2.1384   -8.0094    2.9665 C.ar    1  UNL1       -0.0503
     25 C           1.6912   -8.4628    4.3324 C.3     1  UNL1       -0.0397
     26 C           1.8686   -8.7885    1.8570 C.ar    1  UNL1       -0.0570
     27 C           2.2758   -8.3710    0.6037 C.ar    1  UNL1       -0.0351
     28 H           1.0053    1.8021    0.0021 H       1  UNL1        0.0523
     29 H          -0.5445    1.7859   -0.8732 H       1  UNL1        0.0523
     30 H          -0.5275    1.7763    0.9067 H       1  UNL1        0.0523
     31 H           1.7103   -0.2468    1.1385 H       1  UNL1        0.0575
     32 H           0.1775   -0.2725    2.0430 H       1  UNL1        0.0575
     33 H           1.0656   -2.5499    1.9080 H       1  UNL1        0.0484
     34 H          -0.4012   -2.4369    0.9060 H       1  UNL1        0.0484
     35 H           1.8353   -1.8696   -0.7228 H       1  UNL1        0.1488
     36 H           1.8631   -3.8353   -2.5662 H       1  UNL1        0.0539
     37 H           3.3299   -3.9483   -1.5642 H       1  UNL1        0.0539
     38 H           1.0250   -7.4094   -2.0721 H       1  UNL1        0.0493
     39 H           0.2180   -5.8338   -2.2581 H       1  UNL1        0.0493
     40 H           0.4613   -4.5470   -4.3049 H       1  UNL1        0.0621
     41 H           0.8858   -4.6157   -6.7294 H       1  UNL1        0.0620
     42 H           3.0936   -6.0906   -8.3543 H       1  UNL1        0.0278
     43 H           2.1428   -7.5902   -8.4780 H       1  UNL1        0.0278
     44 H           1.3424   -6.0112   -8.6629 H       1  UNL1        0.0278
     45 H           2.8045   -8.3988   -6.2863 H       1  UNL1        0.0620
     46 H           2.3834   -8.3283   -3.8613 H       1  UNL1        0.0621
     47 H           3.7592   -5.4646    1.4582 H       1  UNL1        0.0637
     48 H           3.0282   -6.2052    3.6899 H       1  UNL1        0.0621
     49 H           0.6905   -8.0799    4.5327 H       1  UNL1        0.0278
     50 H           1.6772   -9.5521    4.3671 H       1  UNL1        0.0278
     51 H           2.3826   -8.0841    5.0852 H       1  UNL1        0.0278
     52 H           1.3375   -9.7222    1.9690 H       1  UNL1        0.0621
     53 H           2.0651   -8.9798   -0.2632 H       1  UNL1        0.0637
@<TRIPOS>BOND
     1     1     2    1
     2     1    28    1
     3     1    29    1
     4     1    30    1
     5     2     3    1
     6     3     4    1
     7     3    31    1
     8     3    32    1
     9     4     5    1
    10     4    33    1
    11     4    34    1
    12     5     6   am
    13     5    35    1
    14     6     7    2
    15     6     8    1
    16     8     9    1
    17     8    36    1
    18     8    37    1
    19     9    10    1
    20    18     9    1
    21    10    11    1
    22    10    38    1
    23    10    39    1
    24    11    17   ar
    25    11    12   ar
    26    12    13   ar
    27    12    40    1
    28    13    14   ar
    29    13    41    1
    30    14    15    1
    31    14    16   ar
    32    15    42    1
    33    15    43    1
    34    15    44    1
    35    16    17   ar
    36    16    45    1
    37    17    46    1
    38    18    19    2
    39    18    20    2
    40    18    21    1
    41    21    27   ar
    42    21    22   ar
    43    22    23   ar
    44    22    47    1
    45    23    24   ar
    46    23    48    1
    47    24    25    1
    48    24    26   ar
    49    25    49    1
    50    25    50    1
    51    25    51    1
    52    26    27   ar
    53    26    52    1
    54    27    53    1
