@<TRIPOS>MOLECULE
ZINC000009217099
 47 49 0 0 0
SMALL
GASTEIGER

@<TRIPOS>ATOM
      1 C          -2.2207  -11.2365    1.4071 C.3     1  UNL1       -0.0397
      2 C          -1.8073   -9.7877    1.3765 C.ar    1  UNL1       -0.0503
      3 C          -1.0734   -9.2561    2.4204 C.ar    1  UNL1       -0.0570
      4 C          -0.6942   -7.9271    2.3924 C.ar    1  UNL1       -0.0351
      5 C          -1.0485   -7.1297    1.3202 C.ar    1  UNL1        0.1055
      6 S          -0.5657   -5.4355    1.2847 S.O2    1  UNL1        0.0615
      7 O          -1.4105   -4.7973    0.3369 O.2     1  UNL1       -0.1528
      8 O          -0.4635   -5.0190    2.6394 O.2     1  UNL1       -0.1528
      9 N           0.9668   -5.3756    0.6601 N.3     1  UNL1       -0.1647
     10 C           1.3099   -5.3465   -0.7734 C.3     1  UNL1        0.0214
     11 C           2.7092   -4.6845   -0.8329 C.3     1  UNL1       -0.0366
     12 C           3.3812   -5.2617    0.4409 C.3     1  UNL1       -0.0260
     13 C           2.2104   -5.3361    1.4434 C.3     1  UNL1        0.1081
     14 H           2.2934   -6.2422    2.0437 H       1  UNL1        0.0576
     15 C           2.2252   -4.1247    2.3396 C.2     1  UNL1        0.2361
     16 O           1.5029   -3.1813    2.0960 O.2     1  UNL1       -0.2737
     17 N           3.0410   -4.0895    3.4118 N.am    1  UNL1       -0.2842
     18 C           3.1194   -2.9318    4.1937 C.ar    1  UNL1        0.0335
     19 C           3.3553   -3.0287    5.5588 C.ar    1  UNL1       -0.0399
     20 C           3.4320   -1.8840    6.3278 C.ar    1  UNL1       -0.0484
     21 C           3.2737   -0.6425    5.7399 C.ar    1  UNL1        0.0549
     22 C           3.3575    0.6044    6.5821 C.3     1  UNL1        0.4174
     23 F           4.6825    1.0517    6.6226 F       1  UNL1       -0.1659
     24 F           2.5464    1.5989    6.0250 F       1  UNL1       -0.1659
     25 F           2.9214    0.3202    7.8807 F       1  UNL1       -0.1659
     26 C           3.0391   -0.5426    4.3808 C.ar    1  UNL1       -0.0484
     27 C           2.9670   -1.6831    3.6053 C.ar    1  UNL1       -0.0399
     28 C          -1.7813   -7.6616    0.2756 C.ar    1  UNL1       -0.0351
     29 C          -2.1572   -8.9916    0.3019 C.ar    1  UNL1       -0.0570
     30 H          -1.4474  -11.8450    0.9383 H       1  UNL1        0.0278
     31 H          -2.3559  -11.5540    2.4411 H       1  UNL1        0.0278
     32 H          -3.1579  -11.3585    0.8641 H       1  UNL1        0.0278
     33 H          -0.7966   -9.8791    3.2581 H       1  UNL1        0.0621
     34 H          -0.1215   -7.5116    3.2083 H       1  UNL1        0.0637
     35 H           1.3521   -6.3593   -1.1740 H       1  UNL1        0.0444
     36 H           0.5840   -4.7493   -1.3251 H       1  UNL1        0.0444
     37 H           3.2474   -4.9887   -1.7306 H       1  UNL1        0.0279
     38 H           2.6306   -3.5989   -0.7754 H       1  UNL1        0.0279
     39 H           3.7902   -6.2530    0.2457 H       1  UNL1        0.0286
     40 H           4.1567   -4.5885    0.8065 H       1  UNL1        0.0286
     41 H           3.5739   -4.8669    3.6414 H       1  UNL1        0.1549
     42 H           3.4784   -3.9981    6.0186 H       1  UNL1        0.0636
     43 H           3.6155   -1.9587    7.3895 H       1  UNL1        0.0624
     44 H           2.9159    0.4286    3.9246 H       1  UNL1        0.0624
     45 H           2.7837   -1.6045    2.5439 H       1  UNL1        0.0636
     46 H          -2.0578   -7.0388   -0.5622 H       1  UNL1        0.0637
     47 H          -2.7296   -9.4072   -0.5142 H       1  UNL1        0.0621
@<TRIPOS>BOND
     1     1     2    1
     2     1    30    1
     3     1    31    1
     4     1    32    1
     5     2    29   ar
     6     2     3   ar
     7     3     4   ar
     8     3    33    1
     9     4     5   ar
    10     4    34    1
    11     5     6    1
    12     5    28   ar
    13     6     7    2
    14     6     8    2
    15     6     9    1
    16     9    13    1
    17     9    10    1
    18    10    11    1
    19    10    35    1
    20    10    36    1
    21    11    12    1
    22    11    37    1
    23    11    38    1
    24    12    13    1
    25    12    39    1
    26    12    40    1
    27    13    14    1
    28    13    15    1
    29    15    16    2
    30    15    17   am
    31    17    18    1
    32    17    41    1
    33    18    27   ar
    34    18    19   ar
    35    19    20   ar
    36    19    42    1
    37    20    21   ar
    38    20    43    1
    39    21    22    1
    40    21    26   ar
    41    22    23    1
    42    22    24    1
    43    22    25    1
    44    26    27   ar
    45    26    44    1
    46    27    45    1
    47    28    29   ar
    48    28    46    1
    49    29    47    1
