@<TRIPOS>MOLECULE
ZINC000002726068
 53 54 0 0 0
SMALL
GASTEIGER

@<TRIPOS>ATOM
      1 C          -0.0173    1.4248    0.0099 C.3     1  UNL1        0.0364
      2 O           0.0021   -0.0041    0.0020 O.3     1  UNL1       -0.3829
      3 C           0.6734   -0.5824    1.1231 C.3     1  UNL1        0.0485
      4 C           0.6327   -2.1077    1.0107 C.3     1  UNL1       -0.0150
      5 C           1.3514   -2.7270    2.2110 C.3     1  UNL1        0.0231
      6 N           1.3125   -4.1875    2.1034 N.3     1  UNL1       -0.1677
      7 C           2.3252   -4.8910    1.3124 C.3     1  UNL1        0.0968
      8 C           3.5478   -5.1305    2.1603 C.2     1  UNL1        0.2291
      9 O           3.5709   -4.7509    3.3120 O.2     1  UNL1       -0.2743
     10 N           4.6155   -5.7664    1.6389 N.am    1  UNL1       -0.3101
     11 C           5.8040   -5.9993    2.4632 C.3     1  UNL1        0.0369
     12 C           6.8458   -6.7229    1.6495 C.ar    1  UNL1       -0.0303
     13 C           6.8681   -8.1049    1.6270 C.ar    1  UNL1       -0.0571
     14 C           7.8237   -8.7687    0.8806 C.ar    1  UNL1       -0.0615
     15 C           8.7568   -8.0505    0.1564 C.ar    1  UNL1       -0.0617
     16 C           8.7339   -6.6685    0.1782 C.ar    1  UNL1       -0.0615
     17 C           7.7757   -6.0047    0.9212 C.ar    1  UNL1       -0.0571
     18 S           0.1236   -5.0432    2.8758 S.O2    1  UNL1        0.0613
     19 O           0.6313   -6.3573    3.0617 O.2     1  UNL1       -0.1528
     20 O          -0.3279   -4.2258    3.9469 O.2     1  UNL1       -0.1528
     21 C          -1.2284   -5.1861    1.7549 C.ar    1  UNL1        0.1055
     22 C          -2.2152   -4.2183    1.7353 C.ar    1  UNL1       -0.0351
     23 C          -3.2758   -4.3303    0.8559 C.ar    1  UNL1       -0.0570
     24 C          -3.3494   -5.4100   -0.0042 C.ar    1  UNL1       -0.0503
     25 C          -4.5060   -5.5325   -0.9625 C.3     1  UNL1       -0.0397
     26 C          -2.3619   -6.3772    0.0145 C.ar    1  UNL1       -0.0570
     27 C          -1.2993   -6.2631    0.8912 C.ar    1  UNL1       -0.0351
     28 H           1.0053    1.8021    0.0021 H       1  UNL1        0.0523
     29 H          -0.5445    1.7859   -0.8732 H       1  UNL1        0.0523
     30 H          -0.5275    1.7763    0.9067 H       1  UNL1        0.0523
     31 H           1.7103   -0.2468    1.1385 H       1  UNL1        0.0560
     32 H           0.1775   -0.2725    2.0430 H       1  UNL1        0.0560
     33 H          -0.4042   -2.4434    0.9953 H       1  UNL1        0.0300
     34 H           1.1285   -2.4176    0.0908 H       1  UNL1        0.0300
     35 H           2.3884   -2.3913    2.2264 H       1  UNL1        0.0445
     36 H           0.8556   -2.4171    3.1309 H       1  UNL1        0.0445
     37 H           1.9238   -5.8467    0.9755 H       1  UNL1        0.0539
     38 H           2.5959   -4.2854    0.4475 H       1  UNL1        0.0539
     39 H           4.5971   -6.0700    0.7178 H       1  UNL1        0.1491
     40 H           6.2054   -5.0435    2.8001 H       1  UNL1        0.0512
     41 H           5.5333   -6.6048    3.3281 H       1  UNL1        0.0512
     42 H           6.1391   -8.6660    2.1928 H       1  UNL1        0.0621
     43 H           7.8415   -9.8484    0.8636 H       1  UNL1        0.0618
     44 H           9.5038   -8.5691   -0.4261 H       1  UNL1        0.0618
     45 H           9.4631   -6.1074   -0.3873 H       1  UNL1        0.0618
     46 H           7.7578   -4.9250    0.9382 H       1  UNL1        0.0621
     47 H          -2.1576   -3.3747    2.4072 H       1  UNL1        0.0637
     48 H          -4.0472   -3.5746    0.8410 H       1  UNL1        0.0621
     49 H          -4.2554   -5.0356   -1.8998 H       1  UNL1        0.0278
     50 H          -4.7099   -6.5861   -1.1531 H       1  UNL1        0.0278
     51 H          -5.3892   -5.0643   -0.5279 H       1  UNL1        0.0278
     52 H          -2.4192   -7.2205   -0.6577 H       1  UNL1        0.0621
     53 H          -0.5277   -7.0187    0.9058 H       1  UNL1        0.0637
@<TRIPOS>BOND
     1     1     2    1
     2     1    28    1
     3     1    29    1
     4     1    30    1
     5     2     3    1
     6     3     4    1
     7     3    31    1
     8     3    32    1
     9     4     5    1
    10     4    33    1
    11     4    34    1
    12     5     6    1
    13     5    35    1
    14     5    36    1
    15     6     7    1
    16    18     6    1
    17     7     8    1
    18     7    37    1
    19     7    38    1
    20     8     9    2
    21     8    10   am
    22    10    11    1
    23    10    39    1
    24    11    12    1
    25    11    40    1
    26    11    41    1
    27    12    17   ar
    28    12    13   ar
    29    13    14   ar
    30    13    42    1
    31    14    15   ar
    32    14    43    1
    33    15    16   ar
    34    15    44    1
    35    16    17   ar
    36    16    45    1
    37    17    46    1
    38    18    19    2
    39    18    20    2
    40    18    21    1
    41    21    27   ar
    42    21    22   ar
    43    22    23   ar
    44    22    47    1
    45    23    24   ar
    46    23    48    1
    47    24    25    1
    48    24    26   ar
    49    25    49    1
    50    25    50    1
    51    25    51    1
    52    26    27   ar
    53    26    52    1
    54    27    53    1
