@<TRIPOS>MOLECULE
ZINC000004935725
 52 54 0 0 0
SMALL
GASTEIGER

@<TRIPOS>ATOM
      1 C          -0.0187    1.5258    0.0104 C.3     1  UNL1       -0.0621
      2 C           0.0021   -0.0041    0.0020 C.3     1  UNL1       -0.0343
      3 C           0.7273   -0.4995   -1.2525 C.3     1  UNL1       -0.0097
      4 C           0.8143   -2.0267   -1.2151 C.3     1  UNL1       -0.0314
      5 N           1.5556   -2.4491   -0.0207 N.4     1  UNL1        0.2375
      6 H           2.4690   -2.0204   -0.0239 H       1  UNL1        0.2036
      7 C           1.7022   -3.9107   -0.0286 C.3     1  UNL1       -0.0184
      8 C           2.4765   -4.3522    1.2155 C.3     1  UNL1        0.0048
      9 C           2.6575   -5.8731    1.1863 C.3     1  UNL1        0.0256
     10 N           1.3384   -6.5037    1.0413 N.3     1  UNL1       -0.1762
     11 S           0.8354   -7.6634    2.1110 S.O2    1  UNL1        0.0609
     12 O          -0.1465   -8.4354    1.4334 O.2     1  UNL1       -0.1528
     13 O           2.0118   -8.2252    2.6763 O.2     1  UNL1       -0.1528
     14 C          -0.0006   -6.8356    3.4227 C.ar    1  UNL1        0.1055
     15 C           0.7062   -6.4052    4.5300 C.ar    1  UNL1       -0.0348
     16 C           0.0504   -5.7558    5.5591 C.ar    1  UNL1       -0.0483
     17 C          -1.3122   -5.5363    5.4807 C.ar    1  UNL1        0.0549
     18 C          -2.0272   -4.8288    6.6028 C.3     1  UNL1        0.4174
     19 F          -2.0279   -3.4510    6.3599 F       1  UNL1       -0.1659
     20 F          -3.3460   -5.2895    6.6792 F       1  UNL1       -0.1659
     21 F          -1.3716   -5.0889    7.8109 F       1  UNL1       -0.1659
     22 C          -2.0188   -5.9655    4.3728 C.ar    1  UNL1       -0.0483
     23 C          -1.3623   -6.6115    3.3420 C.ar    1  UNL1       -0.0348
     24 C           0.4739   -6.0854   -0.0707 C.3     1  UNL1        0.0256
     25 C           0.3174   -4.5621   -0.0275 C.3     1  UNL1        0.0048
     26 C           0.8289   -2.0398    1.1872 C.3     1  UNL1       -0.0314
     27 C           0.7425   -0.5130    1.2422 C.3     1  UNL1       -0.0097
     28 H           1.0039    1.9031    0.0027 H       1  UNL1        0.0232
     29 H          -0.5459    1.8868   -0.8726 H       1  UNL1        0.0232
     30 H          -0.5289    1.8773    0.9072 H       1  UNL1        0.0232
     31 H          -1.0201   -0.3825    0.0069 H       1  UNL1        0.0302
     32 H           0.1750   -0.1880   -2.1391 H       1  UNL1        0.0319
     33 H           1.7322   -0.0783   -1.2822 H       1  UNL1        0.0319
     34 H          -0.1911   -2.4469   -1.1856 H       1  UNL1        0.0814
     35 H           1.3299   -2.3828   -2.1070 H       1  UNL1        0.0814
     36 H           2.2465   -4.2162   -0.9222 H       1  UNL1        0.0852
     37 H           3.4538   -3.8696    1.2260 H       1  UNL1        0.0333
     38 H           1.9208   -4.0690    2.1094 H       1  UNL1        0.0333
     39 H           3.2896   -6.1498    0.3425 H       1  UNL1        0.0446
     40 H           3.1204   -6.2039    2.1161 H       1  UNL1        0.0446
     41 H           1.7708   -6.5766    4.5912 H       1  UNL1        0.0637
     42 H           0.6025   -5.4201    6.4245 H       1  UNL1        0.0624
     43 H          -3.0832   -5.7937    4.3114 H       1  UNL1        0.0624
     44 H          -1.9143   -6.9468    2.4764 H       1  UNL1        0.0637
     45 H           0.9279   -6.3794   -1.0170 H       1  UNL1        0.0446
     46 H          -0.5040   -6.5562    0.0297 H       1  UNL1        0.0446
     47 H          -0.2180   -4.2770    0.8782 H       1  UNL1        0.0333
     48 H          -0.2421   -4.2289   -0.9016 H       1  UNL1        0.0333
     49 H          -0.1768   -2.4596    1.1654 H       1  UNL1        0.0814
     50 H           1.3553   -2.4054    2.0688 H       1  UNL1        0.0814
     51 H           1.7477   -0.0921    1.2642 H       1  UNL1        0.0319
     52 H           0.2010   -0.2112    2.1387 H       1  UNL1        0.0319
@<TRIPOS>UNITY_ATOM_ATTR
5 1
charge 1
@<TRIPOS>BOND
     1     1     2    1
     2     1    28    1
     3     1    29    1
     4     1    30    1
     5     2    27    1
     6     2     3    1
     7     2    31    1
     8     3     4    1
     9     3    32    1
    10     3    33    1
    11     4     5    1
    12     4    34    1
    13     4    35    1
    14     5     6    1
    15     5     7    1
    16     5    26    1
    17     7    25    1
    18     7     8    1
    19     7    36    1
    20     8     9    1
    21     8    37    1
    22     8    38    1
    23     9    10    1
    24     9    39    1
    25     9    40    1
    26    11    10    1
    27    10    24    1
    28    11    12    2
    29    11    13    2
    30    11    14    1
    31    14    23   ar
    32    14    15   ar
    33    15    16   ar
    34    15    41    1
    35    16    17   ar
    36    16    42    1
    37    17    18    1
    38    17    22   ar
    39    18    19    1
    40    18    20    1
    41    18    21    1
    42    22    23   ar
    43    22    43    1
    44    23    44    1
    45    24    25    1
    46    24    45    1
    47    24    46    1
    48    25    47    1
    49    25    48    1
    50    26    27    1
    51    26    49    1
    52    26    50    1
    53    27    51    1
    54    27    52    1
