@<TRIPOS>MOLECULE
ZINC000028208414
 48 48 0 0 0
SMALL
GASTEIGER

@<TRIPOS>ATOM
      1 C          -0.0187    1.5258    0.0104 C.3     1  UNL1       -0.0652
      2 C           0.0021   -0.0041    0.0020 C.3     1  UNL1       -0.0542
      3 C          -1.4333   -0.5336    0.0129 C.3     1  UNL1       -0.0350
      4 C          -1.4126   -2.0635    0.0045 C.3     1  UNL1        0.0203
      5 H          -0.8102   -2.4233    0.8386 H       1  UNL1        0.0495
      6 C          -2.8413   -2.5937    0.1410 C.3     1  UNL1       -0.0466
      7 N          -0.8342   -2.5371   -1.2555 N.am    1  UNL1       -0.3127
      8 C          -0.2517   -3.7510   -1.3153 C.2     1  UNL1        0.2135
      9 O          -0.2062   -4.4512   -0.3261 O.2     1  UNL1       -0.2758
     10 C           0.3432   -4.2382   -2.6114 C.3     1  UNL1        0.0279
     11 C           0.9358   -5.6340   -2.4077 C.3     1  UNL1       -0.0194
     12 C           1.5307   -6.1212   -3.7038 C.ar    1  UNL1       -0.0468
     13 C           0.7511   -6.8294   -4.5991 C.ar    1  UNL1       -0.0567
     14 C           1.2968   -7.2763   -5.7879 C.ar    1  UNL1       -0.0351
     15 C           2.6219   -7.0146   -6.0817 C.ar    1  UNL1        0.1055
     16 S           3.3176   -7.5847   -7.5969 S.O2    1  UNL1        0.0604
     17 O           4.7201   -7.6733   -7.3862 O.2     1  UNL1       -0.1529
     18 O           2.5232   -8.6867   -8.0136 O.2     1  UNL1       -0.1529
     19 N           3.0882   -6.3910   -8.7215 N.3     1  UNL1       -0.1827
     20 C           4.1019   -5.3486   -8.9004 C.3     1  UNL1        0.0086
     21 C           1.8716   -6.3774   -9.5374 C.3     1  UNL1        0.0086
     22 C           3.4012   -6.3051   -5.1871 C.ar    1  UNL1       -0.0351
     23 C           2.8545   -5.8549   -3.9999 C.ar    1  UNL1       -0.0567
     24 H           1.0039    1.9031    0.0027 H       1  UNL1        0.0230
     25 H          -0.5459    1.8868   -0.8726 H       1  UNL1        0.0230
     26 H          -0.5289    1.8773    0.9072 H       1  UNL1        0.0230
     27 H           0.5123   -0.3556   -0.8948 H       1  UNL1        0.0263
     28 H           0.5293   -0.3651    0.8851 H       1  UNL1        0.0263
     29 H          -1.9435   -0.1821    0.9097 H       1  UNL1        0.0283
     30 H          -1.9605   -0.1726   -0.8702 H       1  UNL1        0.0283
     31 H          -2.8265   -3.6836    0.1350 H       1  UNL1        0.0247
     32 H          -3.2715   -2.2413    1.0784 H       1  UNL1        0.0247
     33 H          -3.4436   -2.2339   -0.6932 H       1  UNL1        0.0247
     34 H          -0.8706   -1.9771   -2.0466 H       1  UNL1        0.1490
     35 H          -0.4340   -4.2812   -3.3744 H       1  UNL1        0.0361
     36 H           1.1286   -3.5531   -2.9309 H       1  UNL1        0.0361
     37 H           1.7130   -5.5910   -1.6447 H       1  UNL1        0.0318
     38 H           0.1505   -6.3190   -2.0882 H       1  UNL1        0.0318
     39 H          -0.2842   -7.0339   -4.3695 H       1  UNL1        0.0621
     40 H           0.6879   -7.8302   -6.4871 H       1  UNL1        0.0637
     41 H           4.8222   -5.6677   -9.6536 H       1  UNL1        0.0408
     42 H           3.6209   -4.4260   -9.2255 H       1  UNL1        0.0408
     43 H           4.6168   -5.1764   -7.9552 H       1  UNL1        0.0408
     44 H           1.1009   -5.7963   -9.0309 H       1  UNL1        0.0408
     45 H           2.0886   -5.9268  -10.5059 H       1  UNL1        0.0408
     46 H           1.5199   -7.3988   -9.6825 H       1  UNL1        0.0408
     47 H           4.4364   -6.1003   -5.4168 H       1  UNL1        0.0637
     48 H           3.4632   -5.3007   -3.3010 H       1  UNL1        0.0621
@<TRIPOS>BOND
     1     1     2    1
     2     1    24    1
     3     1    25    1
     4     1    26    1
     5     2     3    1
     6     2    27    1
     7     2    28    1
     8     3     4    1
     9     3    29    1
    10     3    30    1
    11     4     5    1
    12     4     6    1
    13     4     7    1
    14     6    31    1
    15     6    32    1
    16     6    33    1
    17     7     8   am
    18     7    34    1
    19     8     9    2
    20     8    10    1
    21    10    11    1
    22    10    35    1
    23    10    36    1
    24    11    12    1
    25    11    37    1
    26    11    38    1
    27    12    23   ar
    28    12    13   ar
    29    13    14   ar
    30    13    39    1
    31    14    15   ar
    32    14    40    1
    33    15    16    1
    34    15    22   ar
    35    16    17    2
    36    16    18    2
    37    16    19    1
    38    19    20    1
    39    19    21    1
    40    20    41    1
    41    20    42    1
    42    20    43    1
    43    21    44    1
    44    21    45    1
    45    21    46    1
    46    22    23   ar
    47    22    47    1
    48    23    48    1
