@<TRIPOS>MOLECULE
ZINC000096098257
 40 41 0 0 0
SMALL
GASTEIGER

@<TRIPOS>ATOM
      1 C           0.4923    2.8313   -1.3933 C.3     1  UNL1        0.0548
      2 S           0.7102    1.1813   -0.6718 S.O2    1  UNL1       -0.0309
      3 O           1.8106    1.2216    0.2263 O.2     1  UNL1       -0.1743
      4 O          -0.5505    0.7216   -0.2042 O.2     1  UNL1       -0.1743
      5 C           1.1827    0.1980   -2.1211 C.3     1  UNL1        0.0794
      6 C           2.4692    0.7658   -2.7250 C.3     1  UNL1       -0.0148
      7 C           2.8462   -0.0455   -3.9686 C.3     1  UNL1        0.0179
      8 N           2.9280   -1.4654   -3.6000 N.am    1  UNL1       -0.2853
      9 C           4.0367   -2.1824   -3.8705 C.2     1  UNL1        0.3064
     10 O           4.9488   -1.6783   -4.4969 O.2     1  UNL1       -0.2523
     11 N           4.1344   -3.4580   -3.4468 N.am    1  UNL1       -0.2693
     12 C           5.3390   -4.1546   -3.5960 C.ar    1  UNL1        0.0348
     13 C           6.5492   -3.4807   -3.4981 C.ar    1  UNL1       -0.0399
     14 C           7.7363   -4.1711   -3.6455 C.ar    1  UNL1       -0.0484
     15 C           7.7205   -5.5320   -3.8902 C.ar    1  UNL1        0.0549
     16 C           9.0176   -6.2822   -4.0505 C.3     1  UNL1        0.4174
     17 F           9.4442   -6.7481   -2.8022 F       1  UNL1       -0.1659
     18 F           8.8254   -7.3673   -4.9124 F       1  UNL1       -0.1659
     19 F           9.9875   -5.4278   -4.5856 F       1  UNL1       -0.1659
     20 C           6.5171   -6.2061   -3.9878 C.ar    1  UNL1       -0.0484
     21 C           5.3266   -5.5222   -3.8367 C.ar    1  UNL1       -0.0399
     22 C           1.7783   -2.0889   -2.9304 C.3     1  UNL1        0.0179
     23 C           1.4133   -1.2547   -1.6985 C.3     1  UNL1       -0.0148
     24 H           1.4296    3.1574   -1.8442 H       1  UNL1        0.0464
     25 H          -0.2847    2.7943   -2.1568 H       1  UNL1        0.0464
     26 H           0.2011    3.5338   -0.6123 H       1  UNL1        0.0464
     27 H           0.3851    0.2382   -2.8629 H       1  UNL1        0.0537
     28 H           2.3112    1.8075   -3.0043 H       1  UNL1        0.0299
     29 H           3.2736    0.7031   -1.9921 H       1  UNL1        0.0299
     30 H           2.0852    0.0892   -4.7373 H       1  UNL1        0.0465
     31 H           3.8124    0.2905   -4.3450 H       1  UNL1        0.0465
     32 H           3.3698   -3.8933   -3.0383 H       1  UNL1        0.1564
     33 H           6.5622   -2.4178   -3.3073 H       1  UNL1        0.0636
     34 H           8.6778   -3.6475   -3.5698 H       1  UNL1        0.0624
     35 H           6.5081   -7.2690   -4.1787 H       1  UNL1        0.0624
     36 H           4.3870   -6.0493   -3.9127 H       1  UNL1        0.0636
     37 H           0.9303   -2.1208   -3.6145 H       1  UNL1        0.0465
     38 H           2.0398   -3.1010   -2.6219 H       1  UNL1        0.0465
     39 H           2.2276   -1.2983   -0.9753 H       1  UNL1        0.0299
     40 H           0.5037   -1.6510   -1.2472 H       1  UNL1        0.0299
@<TRIPOS>BOND
     1     1     2    1
     2     1    24    1
     3     1    25    1
     4     1    26    1
     5     2     3    2
     6     2     4    2
     7     2     5    1
     8     5    23    1
     9     5     6    1
    10     5    27    1
    11     6     7    1
    12     6    28    1
    13     6    29    1
    14     7     8    1
    15     7    30    1
    16     7    31    1
    17     8     9   am
    18     8    22    1
    19     9    10    2
    20     9    11   am
    21    11    12    1
    22    11    32    1
    23    12    21   ar
    24    12    13   ar
    25    13    14   ar
    26    13    33    1
    27    14    15   ar
    28    14    34    1
    29    15    16    1
    30    15    20   ar
    31    16    17    1
    32    16    18    1
    33    16    19    1
    34    20    21   ar
    35    20    35    1
    36    21    36    1
    37    22    23    1
    38    22    37    1
    39    22    38    1
    40    23    39    1
    41    23    40    1
