@<TRIPOS>MOLECULE
ZINC000006844227
 41 43 0 0 0
SMALL
GASTEIGER

@<TRIPOS>ATOM
      1 C          -0.0187    1.5258    0.0104 C.3     1  UNL1       -0.0423
      2 C           0.0021   -0.0041    0.0020 C.3     1  UNL1        0.0691
      3 H          -1.0174   -0.3897    0.0097 H       1  UNL1        0.0541
      4 C           0.7331   -0.5032   -1.2230 C.ar    1  UNL1        0.0374
      5 C           0.3180   -0.4600   -2.4986 C.ar    1  UNL1       -0.0394
      6 C           1.3347   -1.0341   -3.2899 C.ar    1  UNL1       -0.0439
      7 C           2.3316   -1.4074   -2.4602 C.ar    1  UNL1        0.0049
      8 N           1.9691   -1.0893   -1.1876 N.ar    1  UNL1       -0.3478
      9 C           2.7444   -1.3265    0.0351 C.3     1  UNL1        0.0375
     10 C           2.2082   -0.4284    1.1548 C.3     1  UNL1        0.0391
     11 N           0.7380   -0.5039    1.1783 N.3     1  UNL1       -0.1664
     12 S          -0.0627   -1.1311    2.4851 S.O2    1  UNL1        0.0615
     13 O          -1.3276   -1.5691    2.0083 O.2     1  UNL1       -0.1528
     14 O           0.8580   -1.9882    3.1463 O.2     1  UNL1       -0.1528
     15 C          -0.3824    0.2032    3.5906 C.ar    1  UNL1        0.1066
     16 C           0.5416    0.5295    4.5656 C.ar    1  UNL1       -0.0237
     17 C           0.2907    1.5762    5.4329 C.ar    1  UNL1        0.0572
     18 C           1.2978    1.9316    6.4962 C.3     1  UNL1        0.4175
     19 F           2.1978    2.8751    5.9894 F       1  UNL1       -0.1659
     20 F           0.6351    2.4681    7.6054 F       1  UNL1       -0.1659
     21 F           1.9952    0.7815    6.8810 F       1  UNL1       -0.1659
     22 C          -0.8837    2.2974    5.3245 C.ar    1  UNL1       -0.0384
     23 C          -1.8074    1.9714    4.3492 C.ar    1  UNL1        0.0572
     24 C          -3.0879    2.7572    4.2313 C.3     1  UNL1        0.4175
     25 F          -3.1134    3.7566    5.2100 F       1  UNL1       -0.1659
     26 F          -3.1599    3.3441    2.9634 F       1  UNL1       -0.1659
     27 F          -4.1791    1.9004    4.4112 F       1  UNL1       -0.1659
     28 C          -1.5546    0.9273    3.4792 C.ar    1  UNL1       -0.0237
     29 H           1.0039    1.9031    0.0027 H       1  UNL1        0.0249
     30 H          -0.5459    1.8868   -0.8726 H       1  UNL1        0.0249
     31 H          -0.5289    1.8773    0.9072 H       1  UNL1        0.0249
     32 H          -0.6205   -0.0601   -2.8533 H       1  UNL1        0.0636
     33 H           1.3185   -1.1532   -4.3632 H       1  UNL1        0.0633
     34 H           3.2579   -1.8778   -2.7554 H       1  UNL1        0.0809
     35 H           2.6491   -2.3716    0.3296 H       1  UNL1        0.0505
     36 H           3.7933   -1.0932   -0.1479 H       1  UNL1        0.0505
     37 H           2.6045   -0.7653    2.1127 H       1  UNL1        0.0462
     38 H           2.5168    0.6013    0.9746 H       1  UNL1        0.0462
     39 H           1.4592   -0.0337    4.6501 H       1  UNL1        0.0642
     40 H          -1.0796    3.1152    6.0021 H       1  UNL1        0.0629
     41 H          -2.2763    0.6726    2.7171 H       1  UNL1        0.0642
@<TRIPOS>BOND
     1     1     2    1
     2     1    29    1
     3     1    30    1
     4     1    31    1
     5     2     3    1
     6     2    11    1
     7     2     4    1
     8     4     8   ar
     9     4     5   ar
    10     5     6   ar
    11     5    32    1
    12     6     7   ar
    13     6    33    1
    14     7     8   ar
    15     7    34    1
    16     8     9    1
    17     9    10    1
    18     9    35    1
    19     9    36    1
    20    10    11    1
    21    10    37    1
    22    10    38    1
    23    12    11    1
    24    12    13    2
    25    12    14    2
    26    12    15    1
    27    15    28   ar
    28    15    16   ar
    29    16    17   ar
    30    16    39    1
    31    17    18    1
    32    17    22   ar
    33    18    19    1
    34    18    20    1
    35    18    21    1
    36    22    23   ar
    37    22    40    1
    38    23    24    1
    39    23    28   ar
    40    24    25    1
    41    24    26    1
    42    24    27    1
    43    28    41    1
