@<TRIPOS>MOLECULE
ZINC000012799504
 47 48 0 0 0
SMALL
GASTEIGER

@<TRIPOS>ATOM
      1 C           0.2576    1.4816    0.4590 C.3     1  UNL1       -0.0507
      2 C           0.2071   -0.0438    0.3516 C.3     1  UNL1        0.0177
      3 N          -1.1804   -0.4744    0.1629 N.3     1  UNL1       -0.1771
      4 C          -1.7629   -0.5008   -1.1811 C.3     1  UNL1        0.0177
      5 C          -1.4134   -1.8254   -1.8624 C.3     1  UNL1       -0.0507
      6 S          -2.0904   -0.9314    1.4689 S.O2    1  UNL1        0.0608
      7 O          -3.1131   -1.7812    0.9677 O.2     1  UNL1       -0.1528
      8 O          -1.1726   -1.3310    2.4774 O.2     1  UNL1       -0.1528
      9 C          -2.8965    0.5138    2.0741 C.ar    1  UNL1        0.1056
     10 C          -2.2793    1.2986    3.0308 C.ar    1  UNL1       -0.0336
     11 C          -2.9085    2.4320    3.5073 C.ar    1  UNL1       -0.0386
     12 C          -4.1622    2.7833    3.0243 C.ar    1  UNL1        0.0336
     13 N          -4.8022    3.9312    3.5046 N.am    1  UNL1       -0.2827
     14 C          -4.0755    5.0093    3.8595 C.2     1  UNL1        0.2548
     15 O          -2.8770    5.0208    3.6736 O.2     1  UNL1       -0.2717
     16 C          -4.7520    6.2006    4.4875 C.3     1  UNL1        0.1655
     17 O          -3.7778    7.2067    4.7715 O.3     1  UNL1       -0.4828
     18 C          -4.2256    8.3550    5.3442 C.ar    1  UNL1        0.1213
     19 C          -5.5741    8.5077    5.6321 C.ar    1  UNL1       -0.0189
     20 C          -6.0271    9.6757    6.2142 C.ar    1  UNL1       -0.0452
     21 C          -5.1373   10.6927    6.5096 C.ar    1  UNL1        0.0136
     22 I          -5.8277   12.4628    7.3924 I       1  UNL1       -0.0438
     23 C          -3.7924   10.5426    6.2235 C.ar    1  UNL1       -0.0452
     24 C          -3.3341    9.3738    5.6470 C.ar    1  UNL1       -0.0189
     25 C          -4.7792    1.9933    2.0632 C.ar    1  UNL1       -0.0386
     26 C          -4.1426    0.8638    1.5873 C.ar    1  UNL1       -0.0336
     27 H           1.2899    1.8020    0.5994 H       1  UNL1        0.0243
     28 H          -0.1389    1.9235   -0.4551 H       1  UNL1        0.0243
     29 H          -0.3423    1.8060    1.3093 H       1  UNL1        0.0243
     30 H           0.8070   -0.3682   -0.4987 H       1  UNL1        0.0441
     31 H           0.6036   -0.4857    1.2657 H       1  UNL1        0.0441
     32 H          -2.8462   -0.4038   -1.1095 H       1  UNL1        0.0441
     33 H          -1.3619    0.3261   -1.7671 H       1  UNL1        0.0441
     34 H          -0.3301   -1.9225   -1.9340 H       1  UNL1        0.0243
     35 H          -1.8144   -2.6524   -1.2763 H       1  UNL1        0.0243
     36 H          -1.8468   -1.8451   -2.8624 H       1  UNL1        0.0243
     37 H          -1.3043    1.0248    3.4060 H       1  UNL1        0.0638
     38 H          -2.4262    3.0441    4.2550 H       1  UNL1        0.0637
     39 H          -5.7689    3.9510    3.5821 H       1  UNL1        0.1549
     40 H          -5.4968    6.6000    3.7992 H       1  UNL1        0.0795
     41 H          -5.2396    5.8953    5.4133 H       1  UNL1        0.0795
     42 H          -6.2693    7.7141    5.4010 H       1  UNL1        0.0654
     43 H          -7.0768    9.7950    6.4385 H       1  UNL1        0.0629
     44 H          -3.0995   11.3380    6.4550 H       1  UNL1        0.0629
     45 H          -2.2838    9.2569    5.4241 H       1  UNL1        0.0654
     46 H          -5.7542    2.2638    1.6856 H       1  UNL1        0.0637
     47 H          -4.6219    0.2489    0.8399 H       1  UNL1        0.0638
@<TRIPOS>BOND
     1     1     2    1
     2     1    27    1
     3     1    28    1
     4     1    29    1
     5     2     3    1
     6     2    30    1
     7     2    31    1
     8     3     4    1
     9     6     3    1
    10     4     5    1
    11     4    32    1
    12     4    33    1
    13     5    34    1
    14     5    35    1
    15     5    36    1
    16     6     7    2
    17     6     8    2
    18     6     9    1
    19     9    26   ar
    20     9    10   ar
    21    10    11   ar
    22    10    37    1
    23    11    12   ar
    24    11    38    1
    25    12    13    1
    26    12    25   ar
    27    13    14   am
    28    13    39    1
    29    14    15    2
    30    14    16    1
    31    16    17    1
    32    16    40    1
    33    16    41    1
    34    17    18    1
    35    18    24   ar
    36    18    19   ar
    37    19    20   ar
    38    19    42    1
    39    20    21   ar
    40    20    43    1
    41    21    22    1
    42    21    23   ar
    43    23    24   ar
    44    23    44    1
    45    24    45    1
    46    25    26   ar
    47    25    46    1
    48    26    47    1
