@<TRIPOS>MOLECULE
ZINC000408622482
 57 58 0 0 0
SMALL
GASTEIGER

@<TRIPOS>ATOM
      1 C          -0.0173    1.4248    0.0099 C.3     1  UNL1        0.0365
      2 O           0.0021   -0.0041    0.0020 O.3     1  UNL1       -0.3812
      3 C           0.6734   -0.5824    1.1231 C.3     1  UNL1        0.0654
      4 C           0.6327   -2.1077    1.0107 C.3     1  UNL1        0.0437
      5 H           1.0656   -2.5499    1.9080 H       1  UNL1        0.0518
      6 C          -0.8185   -2.5697    0.8637 C.3     1  UNL1       -0.0445
      7 N           1.4013   -2.5316   -0.1622 N.am    1  UNL1       -0.3094
      8 C           1.9353   -3.7683   -0.2071 C.2     1  UNL1        0.2291
      9 O           1.7795   -4.5302    0.7236 O.2     1  UNL1       -0.2743
     10 C           2.7259   -4.2043   -1.4136 C.3     1  UNL1        0.0971
     11 N           3.1956   -5.5783   -1.2192 N.3     1  UNL1       -0.1635
     12 C           2.3234   -6.7055   -1.5582 C.3     1  UNL1        0.0460
     13 C           2.4574   -7.0208   -3.0258 C.ar    1  UNL1       -0.0317
     14 C           1.6328   -6.3988   -3.9445 C.ar    1  UNL1       -0.0573
     15 C           1.7558   -6.6880   -5.2906 C.ar    1  UNL1       -0.0615
     16 C           2.7037   -7.5988   -5.7181 C.ar    1  UNL1       -0.0617
     17 C           3.5289   -8.2201   -4.7995 C.ar    1  UNL1       -0.0615
     18 C           3.4088   -7.9277   -3.4538 C.ar    1  UNL1       -0.0573
     19 S           4.7125   -5.8573   -0.6163 S.O2    1  UNL1        0.0616
     20 O           5.0824   -7.1598   -1.0475 O.2     1  UNL1       -0.1528
     21 O           5.4789   -4.6961   -0.9051 O.2     1  UNL1       -0.1528
     22 C           4.5701   -5.9358    1.1382 C.ar    1  UNL1        0.1060
     23 C           4.6987   -4.7849    1.8931 C.ar    1  UNL1       -0.0319
     24 C           4.5870   -4.8437    3.2690 C.ar    1  UNL1       -0.0178
     25 C           4.3456   -6.0589    3.8927 C.ar    1  UNL1        0.1231
     26 O           4.2349   -6.1193    5.2459 O.3     1  UNL1       -0.4948
     27 C           4.3780   -4.8921    5.9639 C.3     1  UNL1        0.0788
     28 C           4.2169   -7.2127    3.1328 C.ar    1  UNL1       -0.0070
     29 C           3.9542   -8.5345    3.8071 C.3     1  UNL1       -0.0362
     30 C           4.3242   -7.1477    1.7572 C.ar    1  UNL1       -0.0290
     31 H           1.0053    1.8021    0.0021 H       1  UNL1        0.0523
     32 H          -0.5445    1.7859   -0.8732 H       1  UNL1        0.0523
     33 H          -0.5275    1.7763    0.9067 H       1  UNL1        0.0523
     34 H           1.7103   -0.2468    1.1385 H       1  UNL1        0.0578
     35 H           0.1775   -0.2725    2.0430 H       1  UNL1        0.0578
     36 H          -0.8475   -3.6564    0.7836 H       1  UNL1        0.0248
     37 H          -1.3904   -2.2544    1.7364 H       1  UNL1        0.0248
     38 H          -1.2514   -2.1276   -0.0336 H       1  UNL1        0.0248
     39 H           1.5259   -1.9223   -0.9066 H       1  UNL1        0.1491
     40 H           2.0921   -4.1589   -2.2992 H       1  UNL1        0.0539
     41 H           3.5822   -3.5429   -1.5454 H       1  UNL1        0.0539
     42 H           2.6120   -7.5775   -0.9714 H       1  UNL1        0.0493
     43 H           1.2888   -6.4440   -1.3358 H       1  UNL1        0.0493
     44 H           0.8922   -5.6872   -3.6105 H       1  UNL1        0.0621
     45 H           1.1110   -6.2026   -6.0083 H       1  UNL1        0.0618
     46 H           2.7993   -7.8253   -6.7698 H       1  UNL1        0.0618
     47 H           4.2693   -8.9320   -5.1335 H       1  UNL1        0.0618
     48 H           4.0536   -8.4131   -2.7361 H       1  UNL1        0.0621
     49 H           4.8870   -3.8390    1.4070 H       1  UNL1        0.0638
     50 H           4.6879   -3.9443    3.8584 H       1  UNL1        0.0655
     51 H           5.3639   -4.4701    5.7693 H       1  UNL1        0.0660
     52 H           3.6112   -4.1892    5.6384 H       1  UNL1        0.0660
     53 H           4.2679   -5.0810    7.0318 H       1  UNL1        0.0660
     54 H           2.8789   -8.6906    3.8941 H       1  UNL1        0.0279
     55 H           4.3911   -9.3380    3.2143 H       1  UNL1        0.0279
     56 H           4.4024   -8.5309    4.8007 H       1  UNL1        0.0279
     57 H           4.2238   -8.0454    1.1652 H       1  UNL1        0.0641
@<TRIPOS>BOND
     1     1     2    1
     2     1    31    1
     3     1    32    1
     4     1    33    1
     5     2     3    1
     6     3     4    1
     7     3    34    1
     8     3    35    1
     9     4     5    1
    10     4     6    1
    11     4     7    1
    12     6    36    1
    13     6    37    1
    14     6    38    1
    15     7     8   am
    16     7    39    1
    17     8     9    2
    18     8    10    1
    19    10    11    1
    20    10    40    1
    21    10    41    1
    22    11    12    1
    23    19    11    1
    24    12    13    1
    25    12    42    1
    26    12    43    1
    27    13    18   ar
    28    13    14   ar
    29    14    15   ar
    30    14    44    1
    31    15    16   ar
    32    15    45    1
    33    16    17   ar
    34    16    46    1
    35    17    18   ar
    36    17    47    1
    37    18    48    1
    38    19    20    2
    39    19    21    2
    40    19    22    1
    41    22    30   ar
    42    22    23   ar
    43    23    24   ar
    44    23    49    1
    45    24    25   ar
    46    24    50    1
    47    25    26    1
    48    25    28   ar
    49    26    27    1
    50    27    51    1
    51    27    52    1
    52    27    53    1
    53    28    29    1
    54    28    30   ar
    55    29    54    1
    56    29    55    1
    57    29    56    1
    58    30    57    1
