@<TRIPOS>MOLECULE
ZINC000001166468
 50 52 0 0 0
SMALL
GASTEIGER

@<TRIPOS>ATOM
      1 C          -3.4433   -8.8416    0.6365 C.3     1  UNL1       -0.0397
      2 C          -2.5321   -7.6540    0.4625 C.ar    1  UNL1       -0.0504
      3 C          -2.2436   -6.8401    1.5419 C.ar    1  UNL1       -0.0585
      4 C          -1.4078   -5.7507    1.3823 C.ar    1  UNL1       -0.0570
      5 C          -0.8601   -5.4754    0.1433 C.ar    1  UNL1       -0.0316
      6 C           0.0507   -4.2875   -0.0308 C.3     1  UNL1        0.0460
      7 N           1.4456   -4.7207    0.0831 N.3     1  UNL1       -0.1635
      8 C           2.0613   -4.8679    1.4042 C.3     1  UNL1        0.0971
      9 C           1.7433   -6.2331    1.9574 C.2     1  UNL1        0.2290
     10 O           1.0687   -7.0070    1.3117 O.2     1  UNL1       -0.2743
     11 N           2.2085   -6.5941    3.1697 N.am    1  UNL1       -0.3114
     12 C           1.8994   -7.9213    3.7075 C.3     1  UNL1        0.0233
     13 C           3.0363   -8.6935    4.3798 C.3     1  UNL1       -0.0328
     14 C           1.9158   -8.0887    5.2282 C.3     1  UNL1       -0.0328
     15 S           2.3262   -5.0441   -1.2816 S.O2    1  UNL1        0.0616
     16 O           3.2845   -6.0280   -0.9170 O.2     1  UNL1       -0.1528
     17 O           1.3864   -5.2261   -2.3318 O.2     1  UNL1       -0.1528
     18 C           3.2345   -3.5861   -1.6739 C.ar    1  UNL1        0.1055
     19 C           2.7216   -2.6745   -2.5776 C.ar    1  UNL1       -0.0351
     20 C           3.4342   -1.5306   -2.8854 C.ar    1  UNL1       -0.0570
     21 C           4.6595   -1.2982   -2.2891 C.ar    1  UNL1       -0.0503
     22 C           5.4366   -0.0515   -2.6249 C.3     1  UNL1       -0.0397
     23 C           5.1718   -2.2092   -1.3843 C.ar    1  UNL1       -0.0570
     24 C           4.4574   -3.3512   -1.0737 C.ar    1  UNL1       -0.0351
     25 C          -1.1475   -6.2901   -0.9359 C.ar    1  UNL1       -0.0570
     26 C          -1.9802   -7.3817   -0.7754 C.ar    1  UNL1       -0.0585
     27 H          -2.8525   -9.7157    0.9104 H       1  UNL1        0.0278
     28 H          -4.1677   -8.6315    1.4233 H       1  UNL1        0.0278
     29 H          -3.9686   -9.0366   -0.2985 H       1  UNL1        0.0278
     30 H          -2.6715   -7.0552    2.5100 H       1  UNL1        0.0620
     31 H          -1.1829   -5.1144    2.2255 H       1  UNL1        0.0621
     32 H          -0.1132   -3.8449   -1.0133 H       1  UNL1        0.0493
     33 H          -0.1644   -3.5485    0.7410 H       1  UNL1        0.0493
     34 H           3.1418   -4.7542    1.3161 H       1  UNL1        0.0539
     35 H           1.6691   -4.1036    2.0751 H       1  UNL1        0.0539
     36 H           2.7481   -5.9751    3.6861 H       1  UNL1        0.1490
     37 H           1.1632   -8.4963    3.1458 H       1  UNL1        0.0498
     38 H           3.0483   -9.7769    4.2604 H       1  UNL1        0.0284
     39 H           4.0143   -8.2141    4.4220 H       1  UNL1        0.0284
     40 H           2.1567   -7.2114    5.8286 H       1  UNL1        0.0284
     41 H           1.1908   -8.7742    5.6670 H       1  UNL1        0.0284
     42 H           1.7643   -2.8560   -3.0435 H       1  UNL1        0.0637
     43 H           3.0338   -0.8187   -3.5919 H       1  UNL1        0.0621
     44 H           5.1560    0.7475   -1.9386 H       1  UNL1        0.0278
     45 H           6.5039   -0.2524   -2.5318 H       1  UNL1        0.0278
     46 H           5.2120    0.2522   -3.6474 H       1  UNL1        0.0278
     47 H           6.1289   -2.0275   -0.9182 H       1  UNL1        0.0621
     48 H           4.8576   -4.0629   -0.3668 H       1  UNL1        0.0637
     49 H          -0.7193   -6.0752   -1.9038 H       1  UNL1        0.0621
     50 H          -2.2048   -8.0182   -1.6185 H       1  UNL1        0.0620
@<TRIPOS>BOND
     1     1     2    1
     2     1    27    1
     3     1    28    1
     4     1    29    1
     5     2    26   ar
     6     2     3   ar
     7     3     4   ar
     8     3    30    1
     9     4     5   ar
    10     4    31    1
    11     5     6    1
    12     5    25   ar
    13     6     7    1
    14     6    32    1
    15     6    33    1
    16     7     8    1
    17    15     7    1
    18     8     9    1
    19     8    34    1
    20     8    35    1
    21     9    10    2
    22     9    11   am
    23    11    12    1
    24    11    36    1
    25    12    14    1
    26    12    13    1
    27    12    37    1
    28    13    14    1
    29    13    38    1
    30    13    39    1
    31    14    40    1
    32    14    41    1
    33    15    16    2
    34    15    17    2
    35    15    18    1
    36    18    24   ar
    37    18    19   ar
    38    19    20   ar
    39    19    42    1
    40    20    21   ar
    41    20    43    1
    42    21    22    1
    43    21    23   ar
    44    22    44    1
    45    22    45    1
    46    22    46    1
    47    23    24   ar
    48    23    47    1
    49    24    48    1
    50    25    26   ar
    51    25    49    1
    52    26    50    1
