@<TRIPOS>MOLECULE
ZINC000096025561
 46 48 0 0 0
SMALL
GASTEIGER

@<TRIPOS>ATOM
      1 O          -3.7248    2.1128   -2.0132 O.2     1  UNL1       -0.1693
      2 S          -2.8445    1.3774   -1.1745 S.O2    1  UNL1       -0.0016
      3 O          -2.8183   -0.0430   -1.2062 O.2     1  UNL1       -0.1693
      4 C          -1.1618    2.0476   -1.2745 C.3     1  UNL1        0.0880
      5 C          -0.5347    1.6535   -2.6133 C.3     1  UNL1        0.0516
      6 H          -0.4958    0.5675   -2.6989 H       1  UNL1        0.0496
      7 C          -1.3633    2.2421   -3.7746 C.3     1  UNL1       -0.0330
      8 C          -0.2763    2.6637   -4.7983 C.3     1  UNL1       -0.0370
      9 C           0.8639    3.1388   -3.8634 C.3     1  UNL1        0.0209
     10 N           0.8217    2.2118   -2.7137 N.3     1  UNL1       -0.1720
     11 S           2.0896    1.8650   -1.7065 S.O2    1  UNL1        0.0611
     12 O           1.7513    0.6584   -1.0364 O.2     1  UNL1       -0.1528
     13 O           3.2710    2.0190   -2.4810 O.2     1  UNL1       -0.1528
     14 C           2.1354    3.1229   -0.4736 C.ar    1  UNL1        0.1055
     15 C           2.7804    4.3184   -0.7295 C.ar    1  UNL1       -0.0348
     16 C           2.8164    5.3053    0.2378 C.ar    1  UNL1       -0.0483
     17 C           2.2069    5.0968    1.4609 C.ar    1  UNL1        0.0549
     18 C           2.2465    6.1725    2.5156 C.3     1  UNL1        0.4174
     19 F           1.1362    7.0108    2.3687 F       1  UNL1       -0.1659
     20 F           2.2213    5.5830    3.7841 F       1  UNL1       -0.1659
     21 F           3.4190    6.9223    2.3731 F       1  UNL1       -0.1659
     22 C           1.5607    3.9018    1.7163 C.ar    1  UNL1       -0.0483
     23 C           1.5215    2.9164    0.7477 C.ar    1  UNL1       -0.0348
     24 C          -3.3760    1.7658    0.4600 C.ar    1  UNL1        0.0882
     25 C          -3.0513    0.9273    1.5099 C.ar    1  UNL1       -0.0369
     26 C          -3.4682    1.2320    2.7922 C.ar    1  UNL1       -0.0600
     27 C          -4.2094    2.3754    3.0246 C.ar    1  UNL1       -0.0616
     28 C          -4.5333    3.2144    1.9748 C.ar    1  UNL1       -0.0600
     29 C          -4.1128    2.9119    0.6932 C.ar    1  UNL1       -0.0369
     30 H          -1.1982    3.1341   -1.1962 H       1  UNL1        0.0520
     31 H          -0.5611    1.6444   -0.4592 H       1  UNL1        0.0520
     32 H          -2.0218    1.4853   -4.2009 H       1  UNL1        0.0282
     33 H          -1.9347    3.1081   -3.4403 H       1  UNL1        0.0282
     34 H           0.0422    1.8139   -5.4022 H       1  UNL1        0.0279
     35 H          -0.6293    3.4791   -5.4295 H       1  UNL1        0.0279
     36 H           1.8256    3.0674   -4.3714 H       1  UNL1        0.0444
     37 H           0.6829    4.1620   -3.5341 H       1  UNL1        0.0444
     38 H           3.2566    4.4813   -1.6851 H       1  UNL1        0.0637
     39 H           3.3210    6.2391    0.0380 H       1  UNL1        0.0624
     40 H           1.0842    3.7391    2.6718 H       1  UNL1        0.0624
     41 H           1.0166    1.9828    0.9472 H       1  UNL1        0.0637
     42 H          -2.4722    0.0340    1.3283 H       1  UNL1        0.0636
     43 H          -3.2151    0.5765    3.6124 H       1  UNL1        0.0618
     44 H          -4.5358    2.6131    4.0263 H       1  UNL1        0.0618
     45 H          -5.1127    4.1076    2.1563 H       1  UNL1        0.0618
     46 H          -4.3658    3.5674   -0.1270 H       1  UNL1        0.0636
@<TRIPOS>BOND
     1     1     2    2
     2     2     3    2
     3     2     4    1
     4     2    24    1
     5     4     5    1
     6     4    30    1
     7     4    31    1
     8     5     6    1
     9     5    10    1
    10     5     7    1
    11     7     8    1
    12     7    32    1
    13     7    33    1
    14     8     9    1
    15     8    34    1
    16     8    35    1
    17     9    10    1
    18     9    36    1
    19     9    37    1
    20    11    10    1
    21    11    12    2
    22    11    13    2
    23    11    14    1
    24    14    23   ar
    25    14    15   ar
    26    15    16   ar
    27    15    38    1
    28    16    17   ar
    29    16    39    1
    30    17    18    1
    31    17    22   ar
    32    18    19    1
    33    18    20    1
    34    18    21    1
    35    22    23   ar
    36    22    40    1
    37    23    41    1
    38    24    29   ar
    39    24    25   ar
    40    25    26   ar
    41    25    42    1
    42    26    27   ar
    43    26    43    1
    44    27    28   ar
    45    27    44    1
    46    28    29   ar
    47    28    45    1
    48    29    46    1
