@<TRIPOS>MOLECULE
ZINC000408606282
 67 69 0 0 0
SMALL
GASTEIGER

@<TRIPOS>ATOM
      1 C           1.0260   -5.8997  -10.0417 C.3     1  UNL1        0.0790
      2 O           1.5296   -4.5676   -9.9242 O.3     1  UNL1       -0.4915
      3 C           1.7785   -4.1102   -8.6680 C.ar    1  UNL1        0.1616
      4 C           1.5487   -4.9275   -7.5734 C.ar    1  UNL1       -0.0145
      5 C           1.8028   -4.4610   -6.2967 C.ar    1  UNL1       -0.0317
      6 C           2.2856   -3.1796   -6.1092 C.ar    1  UNL1        0.1092
      7 S           2.6068   -2.5910   -4.4798 S.O2    1  UNL1        0.0617
      8 O           2.5221   -1.1738   -4.5411 O.2     1  UNL1       -0.1528
      9 O           1.8128   -3.3799   -3.6043 O.2     1  UNL1       -0.1528
     10 N           4.1853   -2.9504   -4.1310 N.3     1  UNL1       -0.1635
     11 C           4.5399   -4.2799   -3.6281 C.3     1  UNL1        0.0971
     12 C           4.9711   -5.1534   -4.7780 C.2     1  UNL1        0.2290
     13 O           4.9812   -4.7090   -5.9065 O.2     1  UNL1       -0.2743
     14 N           5.3455   -6.4283   -4.5524 N.am    1  UNL1       -0.3114
     15 C           5.7647   -7.2773   -5.6702 C.3     1  UNL1        0.0232
     16 C           7.2495   -7.0457   -5.9576 C.3     1  UNL1       -0.0345
     17 C           7.7839   -8.1845   -6.8286 C.3     1  UNL1       -0.0514
     18 C           7.3093   -7.9898   -8.2701 C.3     1  UNL1       -0.0530
     19 C           5.8348   -8.3830   -8.3788 C.3     1  UNL1       -0.0531
     20 C           5.5974   -9.6899   -7.6198 C.3     1  UNL1       -0.0530
     21 C           4.7091   -9.4197   -6.4037 C.3     1  UNL1       -0.0514
     22 C           5.5377   -8.7462   -5.3078 C.3     1  UNL1       -0.0345
     23 C           5.2271   -1.9389   -4.3253 C.3     1  UNL1        0.0460
     24 C           5.4921   -1.2336   -3.0201 C.ar    1  UNL1       -0.0317
     25 C           4.8523   -0.0415   -2.7364 C.ar    1  UNL1       -0.0573
     26 C           5.0954    0.6054   -1.5392 C.ar    1  UNL1       -0.0615
     27 C           5.9779    0.0601   -0.6256 C.ar    1  UNL1       -0.0617
     28 C           6.6170   -1.1325   -0.9090 C.ar    1  UNL1       -0.0615
     29 C           6.3706   -1.7816   -2.1043 C.ar    1  UNL1       -0.0573
     30 C           2.5177   -2.3587   -7.1975 C.ar    1  UNL1        0.0101
     31 C           2.2702   -2.8217   -8.4795 C.ar    1  UNL1        0.1633
     32 O           2.4979   -2.0156   -9.5509 O.3     1  UNL1       -0.4914
     33 C           2.9928   -0.7024   -9.2812 C.3     1  UNL1        0.0790
     34 H           1.7438   -6.5987   -9.6124 H       1  UNL1        0.0660
     35 H           0.0787   -5.9784   -9.5083 H       1  UNL1        0.0660
     36 H           0.8714   -6.1382  -11.0940 H       1  UNL1        0.0660
     37 H           1.1707   -5.9289   -7.7172 H       1  UNL1        0.0656
     38 H           1.6232   -5.0992   -5.4441 H       1  UNL1        0.0638
     39 H           5.3573   -4.1916   -2.9125 H       1  UNL1        0.0539
     40 H           3.6744   -4.7257   -3.1379 H       1  UNL1        0.0539
     41 H           5.3375   -6.7836   -3.6499 H       1  UNL1        0.1490
     42 H           5.1802   -7.0271   -6.5555 H       1  UNL1        0.0498
     43 H           7.3746   -6.0980   -6.4814 H       1  UNL1        0.0283
     44 H           7.8013   -7.0171   -5.0180 H       1  UNL1        0.0283
     45 H           8.8736   -8.1821   -6.8014 H       1  UNL1        0.0266
     46 H           7.4131   -9.1367   -6.4494 H       1  UNL1        0.0266
     47 H           7.4284   -6.9441   -8.5538 H       1  UNL1        0.0265
     48 H           7.9026   -8.6167   -8.9358 H       1  UNL1        0.0265
     49 H           5.2162   -7.5955   -7.9483 H       1  UNL1        0.0265
     50 H           5.5715   -8.5191   -9.4277 H       1  UNL1        0.0265
     51 H           5.1055  -10.4073   -8.2768 H       1  UNL1        0.0265
     52 H           6.5530  -10.0964   -7.2886 H       1  UNL1        0.0265
     53 H           3.8872   -8.7646   -6.6924 H       1  UNL1        0.0266
     54 H           4.3089  -10.3619   -6.0294 H       1  UNL1        0.0266
     55 H           6.4995   -9.2510   -5.2175 H       1  UNL1        0.0283
     56 H           5.0043   -8.8081   -4.3592 H       1  UNL1        0.0283
     57 H           6.1418   -2.4210   -4.6700 H       1  UNL1        0.0493
     58 H           4.8957   -1.2143   -5.0691 H       1  UNL1        0.0493
     59 H           4.1628    0.3846   -3.4501 H       1  UNL1        0.0621
     60 H           4.5961    1.5372   -1.3178 H       1  UNL1        0.0618
     61 H           6.1683    0.5659    0.3095 H       1  UNL1        0.0618
     62 H           7.3067   -1.5584   -0.1953 H       1  UNL1        0.0618
     63 H           6.8699   -2.7133   -2.3257 H       1  UNL1        0.0621
     64 H           2.8950   -1.3579   -7.0483 H       1  UNL1        0.0675
     65 H           3.9475   -0.7738   -8.7603 H       1  UNL1        0.0660
     66 H           3.1303   -0.1661  -10.2202 H       1  UNL1        0.0660
     67 H           2.2778   -0.1657   -8.6576 H       1  UNL1        0.0660
@<TRIPOS>BOND
     1     1     2    1
     2     1    34    1
     3     1    35    1
     4     1    36    1
     5     2     3    1
     6     3    31   ar
     7     3     4   ar
     8     4     5   ar
     9     4    37    1
    10     5     6   ar
    11     5    38    1
    12     6     7    1
    13     6    30   ar
    14     7     8    2
    15     7     9    2
    16     7    10    1
    17    10    11    1
    18    10    23    1
    19    11    12    1
    20    11    39    1
    21    11    40    1
    22    12    13    2
    23    12    14   am
    24    14    15    1
    25    14    41    1
    26    15    22    1
    27    15    16    1
    28    15    42    1
    29    16    17    1
    30    16    43    1
    31    16    44    1
    32    17    18    1
    33    17    45    1
    34    17    46    1
    35    18    19    1
    36    18    47    1
    37    18    48    1
    38    19    20    1
    39    19    49    1
    40    19    50    1
    41    20    21    1
    42    20    51    1
    43    20    52    1
    44    21    22    1
    45    21    53    1
    46    21    54    1
    47    22    55    1
    48    22    56    1
    49    23    24    1
    50    23    57    1
    51    23    58    1
    52    24    29   ar
    53    24    25   ar
    54    25    26   ar
    55    25    59    1
    56    26    27   ar
    57    26    60    1
    58    27    28   ar
    59    27    61    1
    60    28    29   ar
    61    28    62    1
    62    29    63    1
    63    30    31   ar
    64    30    64    1
    65    31    32    1
    66    32    33    1
    67    33    65    1
    68    33    66    1
    69    33    67    1
