@<TRIPOS>MOLECULE
ZINC000007975781
 58 59 0 0 0
SMALL
GASTEIGER

@<TRIPOS>ATOM
      1 C           0.8588   -0.8595   -0.9058 C.3     1  UNL1       -0.0613
      2 C          -0.0055    0.0163    0.0036 C.3     1  UNL1       -0.0305
      3 C          -1.4174   -0.5103    0.0140 C.ar    1  UNL1       -0.0475
      4 C          -2.3313   -0.0528   -0.9175 C.ar    1  UNL1       -0.0568
      5 C          -3.6261   -0.5334   -0.9105 C.ar    1  UNL1       -0.0402
      6 C          -4.0097   -1.4775    0.0329 C.ar    1  UNL1        0.0334
      7 N          -5.3205   -1.9668    0.0423 N.am    1  UNL1       -0.2842
      8 C          -5.9972   -2.1032   -1.1152 C.2     1  UNL1        0.2343
      9 O          -5.4399   -1.8935   -2.1719 O.2     1  UNL1       -0.2738
     10 C          -7.4464   -2.5164   -1.0967 C.3     1  UNL1        0.0862
     11 N          -7.9499   -2.5930   -2.4703 N.pl3   1  UNL1       -0.3325
     12 C          -9.2795   -2.9597   -2.7088 C.ar    1  UNL1        0.0716
     13 C         -10.1234   -3.2453   -1.6460 C.ar    1  UNL1       -0.0109
     14 C         -11.4365   -3.6068   -1.8842 C.ar    1  UNL1        0.1074
     15 S         -12.5073   -3.9692   -0.5327 S.O2    1  UNL1        0.0609
     16 O         -13.5352   -4.8042   -1.0479 O.2     1  UNL1       -0.1528
     17 O         -11.6706   -4.3461    0.5523 O.2     1  UNL1       -0.1528
     18 N         -13.2359   -2.5495   -0.0901 N.3     1  UNL1       -0.1771
     19 C         -14.5046   -2.1541   -0.7066 C.3     1  UNL1        0.0177
     20 C         -15.6657   -2.6028    0.1831 C.3     1  UNL1       -0.0507
     21 C         -12.6117   -1.6890    0.9179 C.3     1  UNL1        0.0177
     22 C         -11.7708   -0.6163    0.2227 C.3     1  UNL1       -0.0507
     23 C         -11.9113   -3.6841   -3.1799 C.ar    1  UNL1       -0.0318
     24 C         -11.0753   -3.4011   -4.2450 C.ar    1  UNL1       -0.0163
     25 C          -9.7604   -3.0332   -4.0147 C.ar    1  UNL1        0.1409
     26 O          -8.9373   -2.7547   -5.0610 O.3     1  UNL1       -0.4933
     27 C          -9.4955   -2.8618   -6.3721 C.3     1  UNL1        0.0789
     28 C          -3.0893   -1.9353    0.9667 C.ar    1  UNL1       -0.0402
     29 C          -1.7948   -1.4543    0.9514 C.ar    1  UNL1       -0.0568
     30 H           1.8800   -0.4786   -0.9133 H       1  UNL1        0.0233
     31 H           0.8558   -1.8839   -0.5333 H       1  UNL1        0.0233
     32 H           0.4562   -0.8400   -1.9185 H       1  UNL1        0.0233
     33 H           0.3971   -0.0032    1.0163 H       1  UNL1        0.0311
     34 H          -0.0025    1.0407   -0.3689 H       1  UNL1        0.0311
     35 H          -2.0324    0.6814   -1.6509 H       1  UNL1        0.0621
     36 H          -4.3396   -0.1752   -1.6379 H       1  UNL1        0.0636
     37 H          -5.7422   -2.2079    0.8819 H       1  UNL1        0.1549
     38 H          -7.5399   -3.4924   -0.6205 H       1  UNL1        0.0557
     39 H          -8.0264   -1.7822   -0.5375 H       1  UNL1        0.0557
     40 H          -7.3619   -2.3897   -3.2145 H       1  UNL1        0.1467
     41 H          -9.7549   -3.1856   -0.6326 H       1  UNL1        0.0657
     42 H         -14.5314   -1.0703   -0.8197 H       1  UNL1        0.0441
     43 H         -14.5947   -2.6239   -1.6860 H       1  UNL1        0.0441
     44 H         -16.6097   -2.3086   -0.2756 H       1  UNL1        0.0243
     45 H         -15.6389   -3.6866    0.2962 H       1  UNL1        0.0243
     46 H         -15.5756   -2.1329    1.1625 H       1  UNL1        0.0243
     47 H         -13.3863   -1.2112    1.5178 H       1  UNL1        0.0441
     48 H         -11.9716   -2.2906    1.5633 H       1  UNL1        0.0441
     49 H         -12.4108   -0.0147   -0.4227 H       1  UNL1        0.0243
     50 H         -11.3064    0.0240    0.9727 H       1  UNL1        0.0243
     51 H         -10.9962   -1.0940   -0.3772 H       1  UNL1        0.0243
     52 H         -12.9378   -3.9665   -3.3613 H       1  UNL1        0.0638
     53 H         -11.4493   -3.4632   -5.2562 H       1  UNL1        0.0655
     54 H          -9.8435   -3.8815   -6.5366 H       1  UNL1        0.0660
     55 H         -10.3340   -2.1719   -6.4674 H       1  UNL1        0.0660
     56 H          -8.7349   -2.6136   -7.1123 H       1  UNL1        0.0660
     57 H          -3.3846   -2.6695    1.7017 H       1  UNL1        0.0636
     58 H          -1.0786   -1.8099    1.6774 H       1  UNL1        0.0621
@<TRIPOS>BOND
     1     1     2    1
     2     1    30    1
     3     1    31    1
     4     1    32    1
     5     2     3    1
     6     2    33    1
     7     2    34    1
     8     3    29   ar
     9     3     4   ar
    10     4     5   ar
    11     4    35    1
    12     5     6   ar
    13     5    36    1
    14     6     7    1
    15     6    28   ar
    16     7     8   am
    17     7    37    1
    18     8     9    2
    19     8    10    1
    20    10    11    1
    21    10    38    1
    22    10    39    1
    23    11    12    1
    24    11    40    1
    25    12    25   ar
    26    12    13   ar
    27    13    14   ar
    28    13    41    1
    29    14    15    1
    30    14    23   ar
    31    15    16    2
    32    15    17    2
    33    15    18    1
    34    18    19    1
    35    18    21    1
    36    19    20    1
    37    19    42    1
    38    19    43    1
    39    20    44    1
    40    20    45    1
    41    20    46    1
    42    21    22    1
    43    21    47    1
    44    21    48    1
    45    22    49    1
    46    22    50    1
    47    22    51    1
    48    23    24   ar
    49    23    52    1
    50    24    25   ar
    51    24    53    1
    52    25    26    1
    53    26    27    1
    54    27    54    1
    55    27    55    1
    56    27    56    1
    57    28    29   ar
    58    28    57    1
    59    29    58    1
