@<TRIPOS>MOLECULE
ZINC000000675274
 53 54 0 0 0
SMALL
GASTEIGER

@<TRIPOS>ATOM
      1 C          -5.6728    0.0946    3.9348 C.3     1  UNL1       -0.0613
      2 C          -4.5678    1.1252    4.1751 C.3     1  UNL1       -0.0305
      3 C          -3.5583    0.5630    5.1425 C.ar    1  UNL1       -0.0474
      4 C          -3.7230    0.7560    6.5017 C.ar    1  UNL1       -0.0551
      5 C          -2.7990    0.2417    7.3906 C.ar    1  UNL1       -0.0197
      6 C          -1.7054   -0.4695    6.9185 C.ar    1  UNL1        0.1212
      7 O          -0.7953   -0.9769    7.7909 O.3     1  UNL1       -0.4828
      8 C           0.3054   -1.6981    7.2338 C.3     1  UNL1        0.1655
      9 C           1.2026   -2.1816    8.3439 C.2     1  UNL1        0.2548
     10 O           0.9266   -1.9331    9.4985 O.2     1  UNL1       -0.2717
     11 N           2.3116   -2.8903    8.0537 N.am    1  UNL1       -0.2827
     12 C           3.1954   -3.2560    9.0750 C.ar    1  UNL1        0.0336
     13 C           4.5622   -3.2937    8.8322 C.ar    1  UNL1       -0.0386
     14 C           5.4319   -3.6551    9.8424 C.ar    1  UNL1       -0.0336
     15 C           4.9429   -3.9798   11.0944 C.ar    1  UNL1        0.1056
     16 S           6.0558   -4.4409   12.3804 S.O2    1  UNL1        0.0608
     17 O           5.3036   -5.2175   13.3025 O.2     1  UNL1       -0.1528
     18 O           7.2322   -4.9171   11.7413 O.2     1  UNL1       -0.1528
     19 N           6.4852   -3.0545   13.1776 N.3     1  UNL1       -0.1771
     20 C           5.6961   -2.5937   14.3228 C.3     1  UNL1        0.0177
     21 C           6.3329   -3.1012   15.6181 C.3     1  UNL1       -0.0507
     22 C           7.6541   -2.2887   12.7378 C.3     1  UNL1        0.0177
     23 C           7.2060   -1.1719   11.7929 C.3     1  UNL1       -0.0507
     24 C           3.5825   -3.9428   11.3396 C.ar    1  UNL1       -0.0336
     25 C           2.7080   -3.5767   10.3353 C.ar    1  UNL1       -0.0386
     26 C          -1.5427   -0.6622    5.5543 C.ar    1  UNL1       -0.0197
     27 C          -2.4720   -0.1500    4.6698 C.ar    1  UNL1       -0.0551
     28 H          -6.1648   -0.1375    4.8793 H       1  UNL1        0.0233
     29 H          -6.4029    0.5013    3.2351 H       1  UNL1        0.0233
     30 H          -5.2378   -0.8141    3.5188 H       1  UNL1        0.0233
     31 H          -4.0757    1.3573    3.2306 H       1  UNL1        0.0311
     32 H          -5.0027    2.0339    4.5912 H       1  UNL1        0.0311
     33 H          -4.5745    1.3098    6.8687 H       1  UNL1        0.0621
     34 H          -2.9277    0.3934    8.4521 H       1  UNL1        0.0654
     35 H          -0.0683   -2.5530    6.6703 H       1  UNL1        0.0795
     36 H           0.8697   -1.0437    6.5695 H       1  UNL1        0.0795
     37 H           2.4972   -3.1468    7.1368 H       1  UNL1        0.1549
     38 H           4.9447   -3.0409    7.8543 H       1  UNL1        0.0637
     39 H           6.4949   -3.6846    9.6541 H       1  UNL1        0.0638
     40 H           5.6719   -1.5040   14.3325 H       1  UNL1        0.0441
     41 H           4.6797   -2.9791   14.2423 H       1  UNL1        0.0441
     42 H           5.7458   -2.7584   16.4702 H       1  UNL1        0.0243
     43 H           6.3571   -4.1909   15.6085 H       1  UNL1        0.0243
     44 H           7.3493   -2.7159   15.6986 H       1  UNL1        0.0243
     45 H           8.1506   -1.8534   13.6051 H       1  UNL1        0.0441
     46 H           8.3464   -2.9497   12.2165 H       1  UNL1        0.0441
     47 H           8.0757   -0.6021   11.4656 H       1  UNL1        0.0243
     48 H           6.7095   -1.6071   10.9256 H       1  UNL1        0.0243
     49 H           6.5137   -0.5108   12.3141 H       1  UNL1        0.0243
     50 H           3.2037   -4.1969   12.3186 H       1  UNL1        0.0638
     51 H           1.6456   -3.5480   10.5274 H       1  UNL1        0.0637
     52 H          -0.6920   -1.2153    5.1843 H       1  UNL1        0.0654
     53 H          -2.3460   -0.3000    3.6077 H       1  UNL1        0.0621
@<TRIPOS>BOND
     1     1     2    1
     2     1    28    1
     3     1    29    1
     4     1    30    1
     5     2     3    1
     6     2    31    1
     7     2    32    1
     8     3    27   ar
     9     3     4   ar
    10     4     5   ar
    11     4    33    1
    12     5     6   ar
    13     5    34    1
    14     6     7    1
    15     6    26   ar
    16     7     8    1
    17     8     9    1
    18     8    35    1
    19     8    36    1
    20     9    10    2
    21     9    11   am
    22    11    12    1
    23    11    37    1
    24    12    25   ar
    25    12    13   ar
    26    13    14   ar
    27    13    38    1
    28    14    15   ar
    29    14    39    1
    30    15    16    1
    31    15    24   ar
    32    16    17    2
    33    16    18    2
    34    16    19    1
    35    19    20    1
    36    19    22    1
    37    20    21    1
    38    20    40    1
    39    20    41    1
    40    21    42    1
    41    21    43    1
    42    21    44    1
    43    22    23    1
    44    22    45    1
    45    22    46    1
    46    23    47    1
    47    23    48    1
    48    23    49    1
    49    24    25   ar
    50    24    50    1
    51    25    51    1
    52    26    27   ar
    53    26    52    1
    54    27    53    1
