@<TRIPOS>MOLECULE
ZINC000409078019
 53 54 0 0 0
SMALL
GASTEIGER

@<TRIPOS>ATOM
      1 C          -0.0173    1.4248    0.0099 C.3     1  UNL1        0.0364
      2 O           0.0021   -0.0041    0.0020 O.3     1  UNL1       -0.3829
      3 C           0.6734   -0.5824    1.1231 C.3     1  UNL1        0.0487
      4 C           0.6327   -2.1077    1.0107 C.3     1  UNL1       -0.0139
      5 C           1.3514   -2.7270    2.2110 C.3     1  UNL1        0.0137
      6 N           1.3125   -4.1875    2.1034 N.am    1  UNL1       -0.3141
      7 C           1.8871   -4.9489    3.0555 C.2     1  UNL1        0.2288
      8 O           2.4365   -4.4251    4.0013 O.2     1  UNL1       -0.2743
      9 C           1.8470   -6.4513    2.9447 C.3     1  UNL1        0.0971
     10 N           2.5352   -7.0443    4.0941 N.3     1  UNL1       -0.1635
     11 C           1.8124   -7.2579    5.3503 C.3     1  UNL1        0.0460
     12 C           1.0819   -8.5747    5.2919 C.ar    1  UNL1       -0.0316
     13 C          -0.2097   -8.6275    4.8022 C.ar    1  UNL1       -0.0570
     14 C          -0.8798   -9.8353    4.7486 C.ar    1  UNL1       -0.0585
     15 C          -0.2581  -10.9906    5.1842 C.ar    1  UNL1       -0.0504
     16 C          -0.9887  -12.3073    5.1263 C.3     1  UNL1       -0.0397
     17 C           1.0341  -10.9381    5.6727 C.ar    1  UNL1       -0.0585
     18 C           1.7055   -9.7308    5.7227 C.ar    1  UNL1       -0.0570
     19 S           4.1302   -7.4730    3.9732 S.O2    1  UNL1        0.0616
     20 O           4.3175   -8.5738    4.8521 O.2     1  UNL1       -0.1528
     21 O           4.4269   -7.5278    2.5846 O.2     1  UNL1       -0.1528
     22 C           5.0792   -6.1428    4.6326 C.ar    1  UNL1        0.1056
     23 C           5.4989   -5.1173    3.8061 C.ar    1  UNL1       -0.0343
     24 C           6.2430   -4.0734    4.3230 C.ar    1  UNL1       -0.0459
     25 C           6.5677   -4.0550    5.6674 C.ar    1  UNL1        0.0180
     26 BR          7.5851   -2.6269    6.3753 Br      1  UNL1       -0.0503
     27 C           6.1475   -5.0815    6.4941 C.ar    1  UNL1       -0.0459
     28 C           5.3990   -6.1222    5.9773 C.ar    1  UNL1       -0.0343
     29 H           1.0053    1.8021    0.0021 H       1  UNL1        0.0523
     30 H          -0.5445    1.7859   -0.8732 H       1  UNL1        0.0523
     31 H          -0.5275    1.7763    0.9067 H       1  UNL1        0.0523
     32 H           1.7103   -0.2468    1.1385 H       1  UNL1        0.0560
     33 H           0.1775   -0.2725    2.0430 H       1  UNL1        0.0560
     34 H          -0.4042   -2.4434    0.9953 H       1  UNL1        0.0302
     35 H           1.1285   -2.4176    0.0908 H       1  UNL1        0.0302
     36 H           2.3884   -2.3913    2.2264 H       1  UNL1        0.0463
     37 H           0.8556   -2.4171    3.1309 H       1  UNL1        0.0463
     38 H           0.8731   -4.6065    1.3469 H       1  UNL1        0.1487
     39 H           0.8101   -6.7870    2.9294 H       1  UNL1        0.0539
     40 H           2.3429   -6.7612    2.0248 H       1  UNL1        0.0539
     41 H           2.5204   -7.2716    6.1790 H       1  UNL1        0.0493
     42 H           1.0951   -6.4507    5.4986 H       1  UNL1        0.0493
     43 H          -0.6954   -7.7249    4.4618 H       1  UNL1        0.0621
     44 H          -1.8891   -9.8764    4.3666 H       1  UNL1        0.0620
     45 H          -0.8000  -12.7856    4.1651 H       1  UNL1        0.0278
     46 H          -0.6361  -12.9542    5.9295 H       1  UNL1        0.0278
     47 H          -2.0587  -12.1345    5.2422 H       1  UNL1        0.0278
     48 H           1.5199  -11.8407    6.0127 H       1  UNL1        0.0620
     49 H           2.7150   -9.6897    6.1043 H       1  UNL1        0.0621
     50 H           5.2456   -5.1318    2.7563 H       1  UNL1        0.0637
     51 H           6.5711   -3.2724    3.6771 H       1  UNL1        0.0629
     52 H           6.4007   -5.0675    7.5439 H       1  UNL1        0.0629
     53 H           5.0709   -6.9237    6.6227 H       1  UNL1        0.0637
@<TRIPOS>BOND
     1     1     2    1
     2     1    29    1
     3     1    30    1
     4     1    31    1
     5     2     3    1
     6     3     4    1
     7     3    32    1
     8     3    33    1
     9     4     5    1
    10     4    34    1
    11     4    35    1
    12     5     6    1
    13     5    36    1
    14     5    37    1
    15     6     7   am
    16     6    38    1
    17     7     8    2
    18     7     9    1
    19     9    10    1
    20     9    39    1
    21     9    40    1
    22    10    11    1
    23    19    10    1
    24    11    12    1
    25    11    41    1
    26    11    42    1
    27    12    18   ar
    28    12    13   ar
    29    13    14   ar
    30    13    43    1
    31    14    15   ar
    32    14    44    1
    33    15    16    1
    34    15    17   ar
    35    16    45    1
    36    16    46    1
    37    16    47    1
    38    17    18   ar
    39    17    48    1
    40    18    49    1
    41    19    20    2
    42    19    21    2
    43    19    22    1
    44    22    28   ar
    45    22    23   ar
    46    23    24   ar
    47    23    50    1
    48    24    25   ar
    49    24    51    1
    50    25    26    1
    51    25    27   ar
    52    27    28   ar
    53    27    52    1
    54    28    53    1
