@<TRIPOS>MOLECULE
ZINC000011612634
 50 52 0 0 0
SMALL
GASTEIGER

@<TRIPOS>ATOM
      1 O           0.5356   -0.2585   -0.1329 O.2     1  UNL1       -0.2754
      2 C           0.1531    0.8835   -0.2761 C.2     1  UNL1        0.2187
      3 C           1.1159    2.0288   -0.0965 C.3     1  UNL1        0.0415
      4 C           2.4547    1.4940    0.4158 C.3     1  UNL1        0.0401
      5 H           2.8191    0.7171   -0.2563 H       1  UNL1        0.0484
      6 C           3.4732    2.6365    0.4804 C.3     1  UNL1       -0.0352
      7 C           4.7653    2.1269    1.1229 C.3     1  UNL1       -0.0504
      8 C           4.4762    1.6563    2.5502 C.3     1  UNL1       -0.0385
      9 C           3.4690    0.5028    2.5091 C.3     1  UNL1        0.0208
     10 N           2.2790    0.9365    1.7638 N.3     1  UNL1       -0.1731
     11 S           0.7700    0.8051    2.4331 S.O2    1  UNL1        0.0611
     12 O          -0.0594    1.7250    1.7364 O.2     1  UNL1       -0.1528
     13 O           0.4884   -0.5851    2.5181 O.2     1  UNL1       -0.1528
     14 C           0.8816    1.3925    4.0906 C.ar    1  UNL1        0.1055
     15 C           1.2806    0.5379    5.1012 C.ar    1  UNL1       -0.0353
     16 C           1.3682    0.9987    6.4016 C.ar    1  UNL1       -0.0599
     17 C           1.0572    2.3141    6.6912 C.ar    1  UNL1       -0.0616
     18 C           0.6591    3.1689    5.6804 C.ar    1  UNL1       -0.0599
     19 C           0.5757    2.7092    4.3793 C.ar    1  UNL1       -0.0353
     20 N          -1.1318    1.1280   -0.6013 N.am    1  UNL1       -0.2855
     21 C          -2.0479    0.0728   -0.6748 C.ar    1  UNL1        0.0334
     22 C          -3.3766    0.2795   -0.3279 C.ar    1  UNL1       -0.0399
     23 C          -4.2783   -0.7641   -0.4014 C.ar    1  UNL1       -0.0484
     24 C          -3.8592   -2.0138   -0.8194 C.ar    1  UNL1        0.0549
     25 C          -4.8456   -3.1504   -0.8980 C.3     1  UNL1        0.4174
     26 F          -5.4262   -3.1768   -2.1706 F       1  UNL1       -0.1659
     27 F          -4.1833   -4.3599   -0.6624 F       1  UNL1       -0.1659
     28 F          -5.8432   -2.9695    0.0660 F       1  UNL1       -0.1659
     29 C          -2.5369   -2.2227   -1.1660 C.ar    1  UNL1       -0.0484
     30 C          -1.6314   -1.1819   -1.1001 C.ar    1  UNL1       -0.0399
     31 H           1.2668    2.5300   -1.0526 H       1  UNL1        0.0374
     32 H           0.7076    2.7370    0.6245 H       1  UNL1        0.0374
     33 H           3.6843    2.9931   -0.5278 H       1  UNL1        0.0281
     34 H           3.0671    3.4526    1.0779 H       1  UNL1        0.0281
     35 H           5.1578    1.2946    0.5387 H       1  UNL1        0.0266
     36 H           5.5004    2.9314    1.1477 H       1  UNL1        0.0266
     37 H           5.4012    1.3153    3.0153 H       1  UNL1        0.0278
     38 H           4.0606    2.4817    3.1282 H       1  UNL1        0.0278
     39 H           3.9174   -0.3561    2.0097 H       1  UNL1        0.0444
     40 H           3.1845    0.2297    3.5253 H       1  UNL1        0.0444
     41 H           1.5236   -0.4898    4.8750 H       1  UNL1        0.0637
     42 H           1.6793    0.3309    7.1913 H       1  UNL1        0.0618
     43 H           1.1250    2.6739    7.7072 H       1  UNL1        0.0618
     44 H           0.4158    4.1965    5.9067 H       1  UNL1        0.0618
     45 H           0.2646    3.3770    3.5896 H       1  UNL1        0.0637
     46 H          -1.4215    2.0354   -0.7845 H       1  UNL1        0.1548
     47 H          -3.7044    1.2551   -0.0006 H       1  UNL1        0.0636
     48 H          -5.3118   -0.6040   -0.1318 H       1  UNL1        0.0624
     49 H          -2.2126   -3.1999   -1.4921 H       1  UNL1        0.0624
     50 H          -0.5989   -1.3457   -1.3709 H       1  UNL1        0.0636
@<TRIPOS>BOND
     1     1     2    2
     2     2     3    1
     3     2    20   am
     4     3     4    1
     5     3    31    1
     6     3    32    1
     7     4     5    1
     8     4    10    1
     9     4     6    1
    10     6     7    1
    11     6    33    1
    12     6    34    1
    13     7     8    1
    14     7    35    1
    15     7    36    1
    16     8     9    1
    17     8    37    1
    18     8    38    1
    19     9    10    1
    20     9    39    1
    21     9    40    1
    22    11    10    1
    23    11    12    2
    24    11    13    2
    25    11    14    1
    26    14    19   ar
    27    14    15   ar
    28    15    16   ar
    29    15    41    1
    30    16    17   ar
    31    16    42    1
    32    17    18   ar
    33    17    43    1
    34    18    19   ar
    35    18    44    1
    36    19    45    1
    37    20    21    1
    38    20    46    1
    39    21    30   ar
    40    21    22   ar
    41    22    23   ar
    42    22    47    1
    43    23    24   ar
    44    23    48    1
    45    24    25    1
    46    24    29   ar
    47    25    26    1
    48    25    27    1
    49    25    28    1
    50    29    30   ar
    51    29    49    1
    52    30    50    1
