@<TRIPOS>MOLECULE
ZINC000015386088
 47 49 0 0 0
SMALL
GASTEIGER

@<TRIPOS>ATOM
      1 C          -0.0187    1.5258    0.0104 C.3     1  UNL1       -0.0617
      2 C           0.0021   -0.0041    0.0020 C.3     1  UNL1       -0.0321
      3 H          -0.8825   -0.4839   -0.4168 H       1  UNL1        0.0306
      4 C           1.3509   -0.6911   -0.2209 C.3     1  UNL1       -0.0384
      5 C           0.7031   -0.7075    1.1659 C.3     1  UNL1        0.0386
      6 H           1.1499   -0.0804    1.9375 H       1  UNL1        0.0397
      7 C           0.1187   -2.0111    1.6455 C.2     1  UNL1        0.2190
      8 O          -0.8714   -2.4646    1.1117 O.2     1  UNL1       -0.2753
      9 N           0.6962   -2.6730    2.6677 N.am    1  UNL1       -0.2987
     10 C           1.8927   -2.1323    3.3280 C.3     1  UNL1        0.0291
     11 C           1.6122   -2.0154    4.8313 C.3     1  UNL1        0.0363
     12 N           1.0565   -3.2905    5.3059 N.3     1  UNL1       -0.1736
     13 S           1.7655   -4.1032    6.5625 S.O2    1  UNL1        0.0610
     14 O           1.3881   -5.4660    6.4228 O.2     1  UNL1       -0.1528
     15 O           3.1188   -3.6720    6.6066 O.2     1  UNL1       -0.1528
     16 C           1.0114   -3.5278    8.0474 C.ar    1  UNL1        0.1065
     17 C           1.5412   -2.4393    8.7149 C.ar    1  UNL1       -0.0237
     18 C           0.9496   -1.9879    9.8798 C.ar    1  UNL1        0.0572
     19 C           1.5275   -0.8016   10.6077 C.3     1  UNL1        0.4175
     20 F           0.9362    0.3725   10.1291 F       1  UNL1       -0.1659
     21 F           1.2740   -0.9265   11.9779 F       1  UNL1       -0.1659
     22 F           2.9087   -0.7496   10.3918 F       1  UNL1       -0.1659
     23 C          -0.1723   -2.6244   10.3768 C.ar    1  UNL1       -0.0384
     24 C          -0.7024   -3.7126    9.7091 C.ar    1  UNL1        0.0572
     25 C          -1.9252   -4.4067   10.2512 C.3     1  UNL1        0.4175
     26 F          -2.3375   -3.7734   11.4285 F       1  UNL1       -0.1659
     27 F          -2.9536   -4.3467    9.3046 F       1  UNL1       -0.1659
     28 F          -1.6197   -5.7445   10.5237 F       1  UNL1       -0.1659
     29 C          -0.1133   -4.1613    8.5419 C.ar    1  UNL1       -0.0237
     30 C          -0.1400   -3.8311    4.6456 C.3     1  UNL1        0.0363
     31 C           0.1372   -3.9453    3.1459 C.3     1  UNL1        0.0291
     32 H           1.0039    1.9031    0.0027 H       1  UNL1        0.0233
     33 H          -0.5459    1.8868   -0.8726 H       1  UNL1        0.0233
     34 H          -0.5289    1.8773    0.9072 H       1  UNL1        0.0233
     35 H           1.3536   -1.6231   -0.7861 H       1  UNL1        0.0275
     36 H           2.2234   -0.0532   -0.3616 H       1  UNL1        0.0275
     37 H           2.7357   -2.8036    3.1643 H       1  UNL1        0.0478
     38 H           2.1217   -1.1475    2.9209 H       1  UNL1        0.0478
     39 H           2.5404   -1.8011    5.3610 H       1  UNL1        0.0459
     40 H           0.8939   -1.2149    5.0082 H       1  UNL1        0.0459
     41 H           2.4176   -1.9419    8.3263 H       1  UNL1        0.0642
     42 H          -0.6345   -2.2717   11.2870 H       1  UNL1        0.0629
     43 H          -0.5274   -5.0115    8.0202 H       1  UNL1        0.0642
     44 H          -0.3689   -4.8160    5.0527 H       1  UNL1        0.0459
     45 H          -0.9830   -3.1599    4.8093 H       1  UNL1        0.0459
     46 H          -0.7917   -4.1596    2.6175 H       1  UNL1        0.0478
     47 H           0.8559   -4.7449    2.9666 H       1  UNL1        0.0478
@<TRIPOS>BOND
     1     1     2    1
     2     1    32    1
     3     1    33    1
     4     1    34    1
     5     2     3    1
     6     2     5    1
     7     2     4    1
     8     4     5    1
     9     4    35    1
    10     4    36    1
    11     5     6    1
    12     5     7    1
    13     7     8    2
    14     7     9   am
    15     9    31    1
    16     9    10    1
    17    10    11    1
    18    10    37    1
    19    10    38    1
    20    11    12    1
    21    11    39    1
    22    11    40    1
    23    13    12    1
    24    12    30    1
    25    13    14    2
    26    13    15    2
    27    13    16    1
    28    16    29   ar
    29    16    17   ar
    30    17    18   ar
    31    17    41    1
    32    18    19    1
    33    18    23   ar
    34    19    20    1
    35    19    21    1
    36    19    22    1
    37    23    24   ar
    38    23    42    1
    39    24    25    1
    40    24    29   ar
    41    25    26    1
    42    25    27    1
    43    25    28    1
    44    29    43    1
    45    30    31    1
    46    30    44    1
    47    30    45    1
    48    31    46    1
    49    31    47    1
