@<TRIPOS>MOLECULE
ZINC000027462455
 54 54 0 0 0
SMALL
GASTEIGER

@<TRIPOS>ATOM
      1 C          -0.0187    1.5258    0.0104 C.3     1  UNL1       -0.0652
      2 C           0.0021   -0.0041    0.0020 C.3     1  UNL1       -0.0542
      3 C           0.7182   -0.4975   -1.2568 C.3     1  UNL1       -0.0350
      4 C           0.7390   -2.0273   -1.2652 C.3     1  UNL1        0.0203
      5 H           1.1870   -2.3897   -0.3400 H       1  UNL1        0.0495
      6 C           1.5619   -2.5197   -2.4574 C.3     1  UNL1       -0.0466
      7 N          -0.6313   -2.5337   -1.3752 N.am    1  UNL1       -0.3127
      8 C          -0.9349   -3.7625   -0.9121 C.2     1  UNL1        0.2135
      9 O          -0.0737   -4.4490   -0.4043 O.2     1  UNL1       -0.2758
     10 C          -2.3445   -4.2833   -1.0253 C.3     1  UNL1        0.0279
     11 C          -2.4177   -5.6903   -0.4288 C.3     1  UNL1       -0.0194
     12 C          -3.8273   -6.2112   -0.5419 C.ar    1  UNL1       -0.0468
     13 C          -4.7342   -5.9776    0.4748 C.ar    1  UNL1       -0.0567
     14 C          -6.0272   -6.4554    0.3710 C.ar    1  UNL1       -0.0351
     15 C          -6.4134   -7.1664   -0.7498 C.ar    1  UNL1        0.1055
     16 S          -8.0613   -7.7759   -0.8818 S.O2    1  UNL1        0.0608
     17 O          -8.0129   -8.8709   -1.7862 O.2     1  UNL1       -0.1528
     18 O          -8.5562   -7.8856    0.4457 O.2     1  UNL1       -0.1528
     19 N          -8.9617   -6.5987   -1.6207 N.3     1  UNL1       -0.1771
     20 C          -9.0841   -6.5781   -3.0804 C.3     1  UNL1        0.0177
     21 C         -10.3645   -7.3058   -3.4951 C.3     1  UNL1       -0.0507
     22 C          -9.6357   -5.5778   -0.8146 C.3     1  UNL1        0.0177
     23 C          -8.7509   -4.3329   -0.7246 C.3     1  UNL1       -0.0507
     24 C          -5.5069   -7.3989   -1.7671 C.ar    1  UNL1       -0.0351
     25 C          -4.2150   -6.9178   -1.6650 C.ar    1  UNL1       -0.0567
     26 H           1.0039    1.9031    0.0027 H       1  UNL1        0.0230
     27 H          -0.5459    1.8868   -0.8726 H       1  UNL1        0.0230
     28 H          -0.5289    1.8773    0.9072 H       1  UNL1        0.0230
     29 H           0.5293   -0.3651    0.8851 H       1  UNL1        0.0263
     30 H          -1.0205   -0.3814    0.0098 H       1  UNL1        0.0263
     31 H           0.1910   -0.1364   -2.1398 H       1  UNL1        0.0283
     32 H           1.7408   -0.1202   -1.2645 H       1  UNL1        0.0283
     33 H           1.1138   -2.1573   -3.3826 H       1  UNL1        0.0247
     34 H           2.5814   -2.1429   -2.3755 H       1  UNL1        0.0247
     35 H           1.5766   -3.6095   -2.4634 H       1  UNL1        0.0247
     36 H          -1.3201   -1.9846   -1.7814 H       1  UNL1        0.1490
     37 H          -3.0206   -3.6229   -0.4824 H       1  UNL1        0.0361
     38 H          -2.6358   -4.3182   -2.0751 H       1  UNL1        0.0361
     39 H          -1.7416   -6.3508   -0.9717 H       1  UNL1        0.0318
     40 H          -2.1264   -5.6555    0.6210 H       1  UNL1        0.0318
     41 H          -4.4325   -5.4221    1.3505 H       1  UNL1        0.0621
     42 H          -6.7355   -6.2735    1.1657 H       1  UNL1        0.0637
     43 H          -9.1245   -5.5455   -3.4271 H       1  UNL1        0.0441
     44 H          -8.2227   -7.0771   -3.5244 H       1  UNL1        0.0441
     45 H         -10.3242   -8.3384   -3.1484 H       1  UNL1        0.0243
     46 H         -11.2260   -6.8069   -3.0511 H       1  UNL1        0.0243
     47 H         -10.4557   -7.2905   -4.5812 H       1  UNL1        0.0243
     48 H         -10.5855   -5.3157   -1.2806 H       1  UNL1        0.0441
     49 H          -9.8176   -5.9674    0.1870 H       1  UNL1        0.0441
     50 H          -7.8010   -4.5950   -0.2587 H       1  UNL1        0.0243
     51 H          -8.5690   -3.9433   -1.7263 H       1  UNL1        0.0243
     52 H          -9.2524   -3.5733   -0.1249 H       1  UNL1        0.0243
     53 H          -5.8087   -7.9541   -2.6430 H       1  UNL1        0.0637
     54 H          -3.5067   -7.0994   -2.4599 H       1  UNL1        0.0621
@<TRIPOS>BOND
     1     1     2    1
     2     1    26    1
     3     1    27    1
     4     1    28    1
     5     2     3    1
     6     2    29    1
     7     2    30    1
     8     3     4    1
     9     3    31    1
    10     3    32    1
    11     4     5    1
    12     4     6    1
    13     4     7    1
    14     6    33    1
    15     6    34    1
    16     6    35    1
    17     7     8   am
    18     7    36    1
    19     8     9    2
    20     8    10    1
    21    10    11    1
    22    10    37    1
    23    10    38    1
    24    11    12    1
    25    11    39    1
    26    11    40    1
    27    12    25   ar
    28    12    13   ar
    29    13    14   ar
    30    13    41    1
    31    14    15   ar
    32    14    42    1
    33    15    16    1
    34    15    24   ar
    35    16    17    2
    36    16    18    2
    37    16    19    1
    38    19    20    1
    39    19    22    1
    40    20    21    1
    41    20    43    1
    42    20    44    1
    43    21    45    1
    44    21    46    1
    45    21    47    1
    46    22    23    1
    47    22    48    1
    48    22    49    1
    49    23    50    1
    50    23    51    1
    51    23    52    1
    52    24    25   ar
    53    24    53    1
    54    25    54    1
