@<TRIPOS>MOLECULE
ZINC000096415027
 35 36 0 0 0
SMALL
GASTEIGER

@<TRIPOS>ATOM
      1 C           0.2896    1.4732   -0.2388 C.3     1  UNL1       -0.0457
      2 C           0.1668   -0.0468   -0.1144 C.3     1  UNL1        0.0525
      3 H           0.6508   -0.5250   -0.9660 H       1  UNL1        0.0500
      4 C          -1.3134   -0.4434   -0.0721 C.3     1  UNL1        0.0646
      5 O          -1.4189   -1.8368    0.2297 O.3     1  UNL1       -0.3769
      6 C          -0.8973   -2.1994    1.5104 C.3     1  UNL1        0.0621
      7 C           0.6042   -1.8927    1.5492 C.3     1  UNL1        0.0443
      8 N           0.8040   -0.4951    1.1339 N.3     1  UNL1       -0.1694
      9 S           1.7176    0.5427    2.0453 S.O2    1  UNL1        0.0625
     10 O           1.0696    1.8059    1.9856 O.2     1  UNL1       -0.1528
     11 O           1.9945   -0.1319    3.2650 O.2     1  UNL1       -0.1528
     12 C           3.2634    0.7370    1.2222 C.ar    1  UNL1        0.1228
     13 C           3.6262    1.9669    0.7142 C.ar    1  UNL1       -0.0335
     14 C           4.8399    2.1213    0.0675 C.ar    1  UNL1       -0.0482
     15 C           5.6970    1.0447   -0.0747 C.ar    1  UNL1        0.0561
     16 C           7.0165    1.2225   -0.7806 C.3     1  UNL1        0.4175
     17 F           7.1467    2.5514   -1.1982 F       1  UNL1       -0.1659
     18 F           8.0603    0.9045    0.0949 F       1  UNL1       -0.1659
     19 F           7.0675    0.3768   -1.8938 F       1  UNL1       -0.1659
     20 C           5.3467   -0.1912    0.4286 C.ar    1  UNL1       -0.0308
     21 C           4.1265   -0.3526    1.0877 C.ar    1  UNL1        0.0786
     22 C           3.7564   -1.6324    1.6126 C.1     1  UNL1        0.1011
     23 N           3.4628   -2.6477    2.0291 N.1     1  UNL1       -0.1908
     24 H           1.3343    1.7636   -0.1272 H       1  UNL1        0.0246
     25 H          -0.0725    1.7881   -1.2174 H       1  UNL1        0.0246
     26 H          -0.3053    1.9507    0.5398 H       1  UNL1        0.0246
     27 H          -1.8235    0.1355    0.6977 H       1  UNL1        0.0576
     28 H          -1.7713   -0.2451   -1.0412 H       1  UNL1        0.0576
     29 H          -1.4060   -1.6268    2.2860 H       1  UNL1        0.0573
     30 H          -1.0559   -3.2644    1.6799 H       1  UNL1        0.0573
     31 H           0.9813   -2.0322    2.5623 H       1  UNL1        0.0467
     32 H           1.1324   -2.5573    0.8655 H       1  UNL1        0.0467
     33 H           2.9615    2.8114    0.8212 H       1  UNL1        0.0637
     34 H           5.1190    3.0866   -0.3284 H       1  UNL1        0.0624
     35 H           6.0166   -1.0309    0.3166 H       1  UNL1        0.0636
@<TRIPOS>BOND
     1     1     2    1
     2     1    24    1
     3     1    25    1
     4     1    26    1
     5     2     3    1
     6     2     8    1
     7     2     4    1
     8     4     5    1
     9     4    27    1
    10     4    28    1
    11     5     6    1
    12     6     7    1
    13     6    29    1
    14     6    30    1
    15     7     8    1
    16     7    31    1
    17     7    32    1
    18     9     8    1
    19     9    10    2
    20     9    11    2
    21     9    12    1
    22    12    21   ar
    23    12    13   ar
    24    13    14   ar
    25    13    33    1
    26    14    15   ar
    27    14    34    1
    28    15    16    1
    29    15    20   ar
    30    16    17    1
    31    16    18    1
    32    16    19    1
    33    20    21   ar
    34    20    35    1
    35    21    22    1
    36    22    23    3
