@<TRIPOS>MOLECULE
ZINC000032665136
 45 47 0 0 0
SMALL
GASTEIGER

@<TRIPOS>ATOM
      1 O           0.0021   -0.0041    0.0020 O.2     1  UNL1       -0.1528
      2 S          -0.0172    1.4168    0.0098 S.O2    1  UNL1        0.0609
      3 O           1.1617    2.2101    0.0028 O.2     1  UNL1       -0.1528
      4 C          -0.9567    1.9094   -1.3970 C.ar    1  UNL1        0.1055
      5 C          -1.8848    1.0442   -1.9458 C.ar    1  UNL1       -0.0348
      6 C          -2.6219    1.4307   -3.0496 C.ar    1  UNL1       -0.0483
      7 C          -2.4313    2.6825   -3.6042 C.ar    1  UNL1        0.0549
      8 C          -3.2345    3.1036   -4.8078 C.3     1  UNL1        0.4174
      9 F          -4.4138    3.7273   -4.3864 F       1  UNL1       -0.1659
     10 F          -2.4843    3.9973   -5.5796 F       1  UNL1       -0.1659
     11 F          -3.5510    1.9771   -5.5746 F       1  UNL1       -0.1659
     12 C          -1.5042    3.5481   -3.0546 C.ar    1  UNL1       -0.0483
     13 C          -0.7699    3.1631   -1.9485 C.ar    1  UNL1       -0.0348
     14 N          -0.8748    1.8654    1.3536 N.3     1  UNL1       -0.1741
     15 C          -0.6844    3.1904    1.9630 C.3     1  UNL1        0.0333
     16 C          -2.0577    3.8473    2.1385 C.3     1  UNL1        0.0137
     17 N          -2.9388    2.9404    2.8863 N.3     1  UNL1       -0.2953
     18 C          -4.2073    3.5994    3.2250 C.3     1  UNL1        0.0313
     19 H          -4.7164    3.9183    2.3156 H       1  UNL1        0.0479
     20 C          -3.9445    4.8122    4.1349 C.3     1  UNL1       -0.0164
     21 C          -5.2836    5.2719    4.7450 C.3     1  UNL1        0.0673
     22 S          -6.3191    3.7654    4.8101 S.O2    1  UNL1       -0.0295
     23 O          -6.5137    3.3860    6.1656 O.2     1  UNL1       -0.1743
     24 O          -7.4406    3.9274    3.9526 O.2     1  UNL1       -0.1743
     25 C          -5.1119    2.6291    4.0277 C.3     1  UNL1        0.0813
     26 C          -3.1744    1.6945    2.1446 C.3     1  UNL1        0.0137
     27 C          -1.8513    0.9517    1.9657 C.3     1  UNL1        0.0333
     28 H          -2.0336    0.0662   -1.5125 H       1  UNL1        0.0637
     29 H          -3.3464    0.7545   -3.4788 H       1  UNL1        0.0624
     30 H          -1.3556    4.5263   -3.4877 H       1  UNL1        0.0624
     31 H          -0.0456    3.8394   -1.5191 H       1  UNL1        0.0637
     32 H          -0.2041    3.0807    2.9352 H       1  UNL1        0.0456
     33 H          -0.0641    3.8070    1.3124 H       1  UNL1        0.0456
     34 H          -1.9464    4.7818    2.6884 H       1  UNL1        0.0440
     35 H          -2.4915    4.0505    1.1594 H       1  UNL1        0.0440
     36 H          -3.2564    4.5303    4.9318 H       1  UNL1        0.0296
     37 H          -3.5113    5.6228    3.5490 H       1  UNL1        0.0296
     38 H          -5.1265    5.6669    5.7487 H       1  UNL1        0.0500
     39 H          -5.7503    6.0248    4.1098 H       1  UNL1        0.0500
     40 H          -5.6156    1.9282    3.3620 H       1  UNL1        0.0515
     41 H          -4.5335    2.0985    4.7841 H       1  UNL1        0.0515
     42 H          -3.8729    1.0677    2.6990 H       1  UNL1        0.0440
     43 H          -3.5927    1.9277    1.1654 H       1  UNL1        0.0440
     44 H          -2.0014    0.0870    1.3193 H       1  UNL1        0.0456
     45 H          -1.4800    0.6260    2.9374 H       1  UNL1        0.0456
@<TRIPOS>BOND
     1     1     2    2
     2     2     3    2
     3     2     4    1
     4     2    14    1
     5     4    13   ar
     6     4     5   ar
     7     5     6   ar
     8     5    28    1
     9     6     7   ar
    10     6    29    1
    11     7     8    1
    12     7    12   ar
    13     8     9    1
    14     8    10    1
    15     8    11    1
    16    12    13   ar
    17    12    30    1
    18    13    31    1
    19    14    27    1
    20    14    15    1
    21    15    16    1
    22    15    32    1
    23    15    33    1
    24    16    17    1
    25    16    34    1
    26    16    35    1
    27    17    18    1
    28    17    26    1
    29    18    19    1
    30    18    25    1
    31    18    20    1
    32    20    21    1
    33    20    36    1
    34    20    37    1
    35    22    21    1
    36    21    38    1
    37    21    39    1
    38    22    23    2
    39    22    24    2
    40    22    25    1
    41    25    40    1
    42    25    41    1
    43    26    27    1
    44    26    42    1
    45    26    43    1
    46    27    44    1
    47    27    45    1
