@<TRIPOS>MOLECULE
ZINC000028208124
 51 52 0 0 0
SMALL
GASTEIGER

@<TRIPOS>ATOM
      1 C          -0.0187    1.5258    0.0104 C.3     1  UNL1       -0.0507
      2 C           0.0021   -0.0041    0.0020 C.3     1  UNL1        0.0177
      3 N          -1.3723   -0.5112    0.0124 N.3     1  UNL1       -0.1771
      4 C          -2.1099   -0.6542   -1.2453 C.3     1  UNL1        0.0177
      5 C          -1.7727   -2.0031   -1.8836 C.3     1  UNL1       -0.0507
      6 S          -2.0922   -0.9227    1.4458 S.O2    1  UNL1        0.0609
      7 O          -3.1196   -1.8512    1.1269 O.2     1  UNL1       -0.1528
      8 O          -1.0393   -1.2108    2.3555 O.2     1  UNL1       -0.1528
      9 C          -2.8978    0.5199    2.0580 C.ar    1  UNL1        0.1071
     10 C          -2.2144    1.3946    2.8819 C.ar    1  UNL1       -0.0318
     11 C          -2.8434    2.5271    3.3632 C.ar    1  UNL1       -0.0166
     12 C          -4.1614    2.7862    3.0193 C.ar    1  UNL1        0.1395
     13 O          -4.7819    3.8997    3.4912 O.3     1  UNL1       -0.4813
     14 C          -4.0161    4.7599    4.3371 C.3     1  UNL1        0.1652
     15 C          -4.8628    5.9328    4.7595 C.2     1  UNL1        0.2507
     16 O          -6.0092    6.0232    4.3741 O.2     1  UNL1       -0.2721
     17 N          -4.3461    6.8813    5.5656 N.am    1  UNL1       -0.3100
     18 C          -5.1691    8.0215    5.9762 C.3     1  UNL1        0.0380
     19 C          -4.3492    8.9425    6.8819 C.3     1  UNL1        0.0742
     20 H          -3.4645    9.3003    6.3553 H       1  UNL1        0.0611
     21 C          -5.2128   10.1383    7.3564 C.3     1  UNL1       -0.0231
     22 C          -4.4839   10.5246    8.6723 C.3     1  UNL1       -0.0271
     23 C          -4.0060    9.1535    9.1968 C.3     1  UNL1        0.0482
     24 O          -3.9693    8.2517    8.0827 O.3     1  UNL1       -0.3750
     25 C          -4.8462    1.9064    2.1916 C.ar    1  UNL1        0.0844
     26 CL         -6.4965    2.2268    1.7583 Cl      1  UNL1       -0.0797
     27 C          -4.2107    0.7779    1.7087 C.ar    1  UNL1       -0.0134
     28 H           1.0039    1.9031    0.0027 H       1  UNL1        0.0243
     29 H          -0.5459    1.8868   -0.8726 H       1  UNL1        0.0243
     30 H          -0.5289    1.8773    0.9072 H       1  UNL1        0.0243
     31 H           0.5123   -0.3556   -0.8948 H       1  UNL1        0.0441
     32 H           0.5293   -0.3651    0.8851 H       1  UNL1        0.0441
     33 H          -3.1804   -0.6037   -1.0465 H       1  UNL1        0.0441
     34 H          -1.8283    0.1500   -1.9251 H       1  UNL1        0.0441
     35 H          -0.7022   -2.0536   -2.0825 H       1  UNL1        0.0243
     36 H          -2.0544   -2.8073   -1.2038 H       1  UNL1        0.0243
     37 H          -2.3215   -2.1096   -2.8194 H       1  UNL1        0.0243
     38 H          -1.1879    1.1925    3.1500 H       1  UNL1        0.0638
     39 H          -2.3087    3.2097    4.0071 H       1  UNL1        0.0655
     40 H          -3.6935    4.2080    5.2199 H       1  UNL1        0.0795
     41 H          -3.1422    5.1195    3.7940 H       1  UNL1        0.0795
     42 H          -3.4292    6.8090    5.8738 H       1  UNL1        0.1489
     43 H          -5.4918    8.5734    5.0934 H       1  UNL1        0.0487
     44 H          -6.0431    7.6619    6.5194 H       1  UNL1        0.0487
     45 H          -5.1821   10.9555    6.6358 H       1  UNL1        0.0291
     46 H          -6.2393    9.8282    7.5524 H       1  UNL1        0.0291
     47 H          -3.6363   11.1789    8.4685 H       1  UNL1        0.0288
     48 H          -5.1742   10.9900    9.3759 H       1  UNL1        0.0288
     49 H          -3.0088    9.2491    9.6263 H       1  UNL1        0.0560
     50 H          -4.7008    8.7834    9.9507 H       1  UNL1        0.0560
     51 H          -4.7424    0.0932    1.0646 H       1  UNL1        0.0653
@<TRIPOS>BOND
     1     1     2    1
     2     1    28    1
     3     1    29    1
     4     1    30    1
     5     2     3    1
     6     2    31    1
     7     2    32    1
     8     3     4    1
     9     6     3    1
    10     4     5    1
    11     4    33    1
    12     4    34    1
    13     5    35    1
    14     5    36    1
    15     5    37    1
    16     6     7    2
    17     6     8    2
    18     6     9    1
    19     9    27   ar
    20     9    10   ar
    21    10    11   ar
    22    10    38    1
    23    11    12   ar
    24    11    39    1
    25    12    13    1
    26    12    25   ar
    27    13    14    1
    28    14    15    1
    29    14    40    1
    30    14    41    1
    31    15    16    2
    32    15    17   am
    33    17    18    1
    34    17    42    1
    35    18    19    1
    36    18    43    1
    37    18    44    1
    38    19    20    1
    39    19    24    1
    40    19    21    1
    41    21    22    1
    42    21    45    1
    43    21    46    1
    44    22    23    1
    45    22    47    1
    46    22    48    1
    47    23    24    1
    48    23    49    1
    49    23    50    1
    50    25    26    1
    51    25    27   ar
    52    27    51    1
