@<TRIPOS>MOLECULE
ZINC000014795775
 57 58 0 0 0
SMALL
GASTEIGER

@<TRIPOS>ATOM
      1 C          -0.0187    1.5258    0.0104 C.3     1  UNL1       -0.0507
      2 C           0.0021   -0.0041    0.0020 C.3     1  UNL1        0.0177
      3 N           0.6878   -0.4765   -1.2033 N.3     1  UNL1       -0.1771
      4 C           2.1478   -0.5966   -1.2159 C.3     1  UNL1        0.0177
      5 C           2.5532   -1.9514   -0.6319 C.3     1  UNL1       -0.0507
      6 S          -0.1875   -0.8749   -2.5515 S.O2    1  UNL1        0.0608
      7 O           0.6166   -1.7761   -3.3001 O.2     1  UNL1       -0.1528
      8 O          -1.4970   -1.1925   -2.1004 O.2     1  UNL1       -0.1528
      9 C          -0.3375    0.5853   -3.5262 C.ar    1  UNL1        0.1055
     10 C          -1.4057    1.4405   -3.3300 C.ar    1  UNL1       -0.0351
     11 C          -1.5234    2.5861   -4.0947 C.ar    1  UNL1       -0.0567
     12 C          -0.5727    2.8767   -5.0552 C.ar    1  UNL1       -0.0468
     13 C          -0.7013    4.1253   -5.8892 C.3     1  UNL1       -0.0194
     14 C           0.0204    5.2805   -5.1924 C.3     1  UNL1        0.0279
     15 C          -0.1082    6.5291   -6.0263 C.2     1  UNL1        0.2136
     16 O          -0.7171    6.4981   -7.0748 O.2     1  UNL1       -0.2758
     17 N           0.4534    7.6803   -5.6071 N.am    1  UNL1       -0.3112
     18 C           0.3284    8.8941   -6.4178 C.3     1  UNL1        0.0368
     19 C           1.0392   10.0320   -5.7315 C.ar    1  UNL1       -0.0302
     20 C           0.3570   10.8325   -4.8344 C.ar    1  UNL1       -0.0552
     21 C           1.0090   11.8763   -4.2049 C.ar    1  UNL1       -0.0351
     22 C           2.3433   12.1193   -4.4721 C.ar    1  UNL1        0.1050
     23 S           3.1743   13.4501   -3.6701 S.O2    1  UNL1        0.0559
     24 N           3.8182   12.8513   -2.2668 N.3     1  UNL1       -0.2035
     25 O           4.2741   13.7954   -4.5010 O.2     1  UNL1       -0.1533
     26 O           2.1687   14.3779   -3.2863 O.2     1  UNL1       -0.1533
     27 C           3.0259   11.3180   -5.3681 C.ar    1  UNL1       -0.0351
     28 C           2.3749   10.2718   -5.9948 C.ar    1  UNL1       -0.0552
     29 C           0.4962    2.0221   -5.2504 C.ar    1  UNL1       -0.0567
     30 C           0.6160    0.8786   -4.4831 C.ar    1  UNL1       -0.0351
     31 H           1.0039    1.9031    0.0027 H       1  UNL1        0.0243
     32 H          -0.5459    1.8868   -0.8726 H       1  UNL1        0.0243
     33 H          -0.5289    1.8773    0.9072 H       1  UNL1        0.0243
     34 H           0.5293   -0.3651    0.8851 H       1  UNL1        0.0441
     35 H          -1.0205   -0.3814    0.0098 H       1  UNL1        0.0441
     36 H           2.5098   -0.5199   -2.2412 H       1  UNL1        0.0441
     37 H           2.5833    0.2026   -0.6162 H       1  UNL1        0.0441
     38 H           2.1177   -2.7506   -1.2316 H       1  UNL1        0.0243
     39 H           3.6395   -2.0407   -0.6413 H       1  UNL1        0.0243
     40 H           2.1912   -2.0280    0.3934 H       1  UNL1        0.0243
     41 H          -2.1485    1.2135   -2.5796 H       1  UNL1        0.0637
     42 H          -2.3583    3.2539   -3.9419 H       1  UNL1        0.0621
     43 H          -0.2543    3.9556   -6.8687 H       1  UNL1        0.0318
     44 H          -1.7555    4.3750   -6.0092 H       1  UNL1        0.0318
     45 H          -0.4267    5.4502   -4.2129 H       1  UNL1        0.0361
     46 H           1.0745    5.0308   -5.0723 H       1  UNL1        0.0361
     47 H           0.9404    7.7052   -4.7686 H       1  UNL1        0.1490
     48 H           0.7754    8.7245   -7.3973 H       1  UNL1        0.0512
     49 H          -0.7258    9.1439   -6.5379 H       1  UNL1        0.0512
     50 H          -0.6855   10.6426   -4.6257 H       1  UNL1        0.0621
     51 H           0.4758   12.5021   -3.5046 H       1  UNL1        0.0637
     52 H           3.6933   11.9176   -2.0355 H       1  UNL1        0.1442
     53 H           4.3203   13.4343   -1.6761 H       1  UNL1        0.1442
     54 H           4.0685   11.5076   -5.5766 H       1  UNL1        0.0637
     55 H           2.9082    9.6458   -6.6948 H       1  UNL1        0.0621
     56 H           1.2392    2.2494   -6.0006 H       1  UNL1        0.0621
     57 H           1.4511    0.2109   -4.6357 H       1  UNL1        0.0637
@<TRIPOS>BOND
     1     1     2    1
     2     1    31    1
     3     1    32    1
     4     1    33    1
     5     2     3    1
     6     2    34    1
     7     2    35    1
     8     3     4    1
     9     6     3    1
    10     4     5    1
    11     4    36    1
    12     4    37    1
    13     5    38    1
    14     5    39    1
    15     5    40    1
    16     6     7    2
    17     6     8    2
    18     6     9    1
    19     9    30   ar
    20     9    10   ar
    21    10    11   ar
    22    10    41    1
    23    11    12   ar
    24    11    42    1
    25    12    13    1
    26    12    29   ar
    27    13    14    1
    28    13    43    1
    29    13    44    1
    30    14    15    1
    31    14    45    1
    32    14    46    1
    33    15    16    2
    34    15    17   am
    35    17    18    1
    36    17    47    1
    37    18    19    1
    38    18    48    1
    39    18    49    1
    40    19    28   ar
    41    19    20   ar
    42    20    21   ar
    43    20    50    1
    44    21    22   ar
    45    21    51    1
    46    22    23    1
    47    22    27   ar
    48    23    24    1
    49    23    25    2
    50    23    26    2
    51    24    52    1
    52    24    53    1
    53    27    28   ar
    54    27    54    1
    55    28    55    1
    56    29    30   ar
    57    29    56    1
    58    30    57    1
