@<TRIPOS>MOLECULE
ZINC000112511457
 42 43 0 0 0
SMALL
GASTEIGER

@<TRIPOS>ATOM
      1 C          -0.0187    1.5258    0.0104 C.3     1  UNL1       -0.0214
      2 C           0.0021   -0.0041    0.0020 C.3     1  UNL1       -0.0231
      3 H          -1.0205   -0.3814    0.0098 H       1  UNL1        0.0850
      4 N           0.7126   -0.4907    1.1921 N.4     1  UNL1        0.2208
      5 H           0.2403   -0.1653    2.0223 H       1  UNL1        0.1997
      6 H           0.7262   -1.4996    1.1866 H       1  UNL1        0.1997
      7 H           1.6592   -0.1414    1.1850 H       1  UNL1        0.1997
      8 C           0.7182   -0.4975   -1.2568 C.3     1  UNL1        0.0161
      9 H           1.7409   -0.1204   -1.2650 H       1  UNL1        0.0368
     10 C          -0.0224    0.0078   -2.4971 C.3     1  UNL1       -0.0427
     11 C           0.7117   -0.4577   -3.7566 C.3     1  UNL1       -0.0381
     12 C           0.7306   -1.9890   -3.7952 C.3     1  UNL1        0.0205
     13 N           1.3104   -2.4866   -2.5402 N.3     1  UNL1       -0.1761
     14 S           2.5857   -3.5427   -2.5604 S.O2    1  UNL1        0.0609
     15 O           2.5508   -4.2378   -1.3214 O.2     1  UNL1       -0.1528
     16 O           2.5442   -4.1980   -3.8206 O.2     1  UNL1       -0.1528
     17 C           4.0610   -2.5793   -2.5489 C.ar    1  UNL1        0.1055
     18 C           4.6334   -2.1775   -3.7413 C.ar    1  UNL1       -0.0348
     19 C           5.7908   -1.4217   -3.7323 C.ar    1  UNL1       -0.0483
     20 C           6.3755   -1.0672   -2.5309 C.ar    1  UNL1        0.0549
     21 C           7.6375   -0.2437   -2.5211 C.3     1  UNL1        0.4174
     22 F           7.3072    1.1155   -2.4931 F       1  UNL1       -0.1659
     23 F           8.3941   -0.5631   -1.3885 F       1  UNL1       -0.1659
     24 F           8.3828   -0.5188   -3.6726 F       1  UNL1       -0.1659
     25 C           5.8023   -1.4678   -1.3385 C.ar    1  UNL1       -0.0483
     26 C           4.6428   -2.2204   -1.3474 C.ar    1  UNL1       -0.0348
     27 C           0.7379   -2.0292   -1.2666 C.3     1  UNL1        0.0284
     28 H           1.0039    1.9031    0.0027 H       1  UNL1        0.0284
     29 H          -0.5459    1.8868   -0.8726 H       1  UNL1        0.0284
     30 H          -0.5289    1.8773    0.9072 H       1  UNL1        0.0284
     31 H          -1.0375   -0.3892   -2.5007 H       1  UNL1        0.0271
     32 H          -0.0588    1.0971   -2.4796 H       1  UNL1        0.0271
     33 H           0.1968   -0.0779   -4.6391 H       1  UNL1        0.0278
     34 H           1.7346   -0.0815   -3.7416 H       1  UNL1        0.0278
     35 H          -0.2872   -2.3645   -3.9016 H       1  UNL1        0.0444
     36 H           1.3363   -2.3259   -4.6364 H       1  UNL1        0.0444
     37 H           4.1766   -2.4545   -4.6799 H       1  UNL1        0.0637
     38 H           6.2384   -1.1084   -4.6639 H       1  UNL1        0.0624
     39 H           6.2589   -1.1906   -0.3998 H       1  UNL1        0.0624
     40 H           4.1950   -2.5334   -0.4158 H       1  UNL1        0.0637
     41 H           1.3483   -2.3930   -0.4401 H       1  UNL1        0.0449
     42 H          -0.2794   -2.4077   -1.1664 H       1  UNL1        0.0449
@<TRIPOS>UNITY_ATOM_ATTR
4 1
charge 1
@<TRIPOS>BOND
     1     1     2    1
     2     1    28    1
     3     1    29    1
     4     1    30    1
     5     2     3    1
     6     2     4    1
     7     2     8    1
     8     4     5    1
     9     4     6    1
    10     4     7    1
    11     8     9    1
    12     8    27    1
    13     8    10    1
    14    10    11    1
    15    10    31    1
    16    10    32    1
    17    11    12    1
    18    11    33    1
    19    11    34    1
    20    12    13    1
    21    12    35    1
    22    12    36    1
    23    14    13    1
    24    13    27    1
    25    14    15    2
    26    14    16    2
    27    14    17    1
    28    17    26   ar
    29    17    18   ar
    30    18    19   ar
    31    18    37    1
    32    19    20   ar
    33    19    38    1
    34    20    21    1
    35    20    25   ar
    36    21    22    1
    37    21    23    1
    38    21    24    1
    39    25    26   ar
    40    25    39    1
    41    26    40    1
    42    27    41    1
    43    27    42    1
