@<TRIPOS>MOLECULE
ZINC000010301500
 54 56 0 0 0
SMALL
GASTEIGER

@<TRIPOS>ATOM
      1 C          -3.7219  -12.3623   -5.0469 C.3     1  UNL1       -0.0307
      2 C          -3.8018  -11.1464   -4.1218 C.3     1  UNL1        0.0868
      3 O          -2.4982  -10.8414   -3.6223 O.3     1  UNL1       -0.4920
      4 C          -2.3929   -9.7803   -2.7797 C.ar    1  UNL1        0.1235
      5 C          -3.5219   -9.0514   -2.4361 C.ar    1  UNL1       -0.0178
      6 C          -3.4124   -7.9733   -1.5789 C.ar    1  UNL1       -0.0319
      7 C          -2.1788   -7.6207   -1.0641 C.ar    1  UNL1        0.1060
      8 S          -2.0423   -6.2450    0.0284 S.O2    1  UNL1        0.0616
      9 O          -0.7022   -5.7835   -0.0730 O.2     1  UNL1       -0.1528
     10 O          -3.1702   -5.4184   -0.2244 O.2     1  UNL1       -0.1528
     11 N          -2.2225   -6.8233    1.5697 N.3     1  UNL1       -0.1635
     12 C          -3.5633   -7.0221    2.1254 C.3     1  UNL1        0.0971
     13 C          -3.9832   -8.4553    1.9237 C.2     1  UNL1        0.2290
     14 O          -3.2360   -9.2340    1.3702 O.2     1  UNL1       -0.2743
     15 N          -5.1891   -8.8718    2.3583 N.am    1  UNL1       -0.3114
     16 C          -5.5973  -10.2650    2.1622 C.3     1  UNL1        0.0233
     17 C          -6.2747  -10.9746    3.3363 C.3     1  UNL1       -0.0328
     18 C          -7.0975  -10.5616    2.1142 C.3     1  UNL1       -0.0328
     19 C          -1.0410   -7.1360    2.3774 C.3     1  UNL1        0.0460
     20 C          -0.7100   -5.9599    3.2597 C.ar    1  UNL1       -0.0317
     21 C           0.2267   -5.0299    2.8491 C.ar    1  UNL1       -0.0573
     22 C           0.5303   -3.9510    3.6583 C.ar    1  UNL1       -0.0615
     23 C          -0.1031   -3.8020    4.8779 C.ar    1  UNL1       -0.0617
     24 C          -1.0405   -4.7315    5.2881 C.ar    1  UNL1       -0.0615
     25 C          -1.3472   -5.8080    4.4769 C.ar    1  UNL1       -0.0573
     26 C          -1.0518   -8.3460   -1.4047 C.ar    1  UNL1       -0.0290
     27 C          -1.1568   -9.4278   -2.2571 C.ar    1  UNL1       -0.0069
     28 C           0.0717  -10.2181   -2.6275 C.3     1  UNL1       -0.0362
     29 H          -4.7163  -12.5950   -5.4279 H       1  UNL1        0.0262
     30 H          -3.0559  -12.1412   -5.8809 H       1  UNL1        0.0262
     31 H          -3.3367  -13.2171   -4.4910 H       1  UNL1        0.0262
     32 H          -4.1871  -10.2916   -4.6777 H       1  UNL1        0.0694
     33 H          -4.4679  -11.3675   -3.2877 H       1  UNL1        0.0694
     34 H          -4.4858   -9.3261   -2.8386 H       1  UNL1        0.0655
     35 H          -4.2911   -7.4055   -1.3111 H       1  UNL1        0.0638
     36 H          -3.5526   -6.7932    3.1910 H       1  UNL1        0.0539
     37 H          -4.2680   -6.3624    1.6191 H       1  UNL1        0.0539
     38 H          -5.7867   -8.2490    2.8009 H       1  UNL1        0.1490
     39 H          -4.9459  -10.8601    1.5222 H       1  UNL1        0.0498
     40 H          -6.0690  -12.0368    3.4689 H       1  UNL1        0.0284
     41 H          -6.4168  -10.4048    4.2546 H       1  UNL1        0.0284
     42 H          -7.7808   -9.7201    2.2285 H       1  UNL1        0.0284
     43 H          -7.4330  -11.3520    1.4429 H       1  UNL1        0.0284
     44 H          -1.2453   -8.0090    2.9973 H       1  UNL1        0.0493
     45 H          -0.1970   -7.3463    1.7205 H       1  UNL1        0.0493
     46 H           0.7216   -5.1463    1.8962 H       1  UNL1        0.0621
     47 H           1.2627   -3.2248    3.3378 H       1  UNL1        0.0618
     48 H           0.1346   -2.9595    5.5105 H       1  UNL1        0.0618
     49 H          -1.5351   -4.6152    6.2411 H       1  UNL1        0.0618
     50 H          -2.0796   -6.5342    4.7974 H       1  UNL1        0.0621
     51 H          -0.0892   -8.0688   -1.0010 H       1  UNL1        0.0641
     52 H           0.2122  -11.0280   -1.9117 H       1  UNL1        0.0279
     53 H          -0.0518  -10.6343   -3.6274 H       1  UNL1        0.0279
     54 H           0.9432   -9.5637   -2.6115 H       1  UNL1        0.0279
@<TRIPOS>BOND
     1     1     2    1
     2     1    29    1
     3     1    30    1
     4     1    31    1
     5     2     3    1
     6     2    32    1
     7     2    33    1
     8     3     4    1
     9     4    27   ar
    10     4     5   ar
    11     5     6   ar
    12     5    34    1
    13     6     7   ar
    14     6    35    1
    15     7     8    1
    16     7    26   ar
    17     8     9    2
    18     8    10    2
    19     8    11    1
    20    11    12    1
    21    11    19    1
    22    12    13    1
    23    12    36    1
    24    12    37    1
    25    13    14    2
    26    13    15   am
    27    15    16    1
    28    15    38    1
    29    16    18    1
    30    16    17    1
    31    16    39    1
    32    17    18    1
    33    17    40    1
    34    17    41    1
    35    18    42    1
    36    18    43    1
    37    19    20    1
    38    19    44    1
    39    19    45    1
    40    20    25   ar
    41    20    21   ar
    42    21    22   ar
    43    21    46    1
    44    22    23   ar
    45    22    47    1
    46    23    24   ar
    47    23    48    1
    48    24    25   ar
    49    24    49    1
    50    25    50    1
    51    26    27   ar
    52    26    51    1
    53    27    28    1
    54    28    52    1
    55    28    53    1
    56    28    54    1
