@<TRIPOS>MOLECULE
ZINC000057761894
 45 48 0 0 0
SMALL
GASTEIGER

@<TRIPOS>ATOM
      1 O           0.3569   -0.0680    0.2095 O.2     1  UNL1       -0.1528
      2 S           0.3142    1.3520    0.1789 S.O2    1  UNL1        0.0611
      3 O           1.4462    2.1695    0.4426 O.2     1  UNL1       -0.1528
      4 C          -0.2585    1.7981   -1.4267 C.ar    1  UNL1        0.1055
      5 C          -1.0096    0.9035   -2.1658 C.ar    1  UNL1       -0.0348
      6 C          -1.4589    1.2534   -3.4254 C.ar    1  UNL1       -0.0483
      7 C          -1.1574    2.4981   -3.9457 C.ar    1  UNL1        0.0549
      8 C          -1.6467    2.8794   -5.3191 C.3     1  UNL1        0.4174
      9 F          -2.9030    3.4863   -5.2147 F       1  UNL1       -0.1659
     10 F          -0.7440    3.7738   -5.9041 F       1  UNL1       -0.1659
     11 F          -1.7476    1.7322   -6.1133 F       1  UNL1       -0.1659
     12 C          -0.4074    3.3933   -3.2060 C.ar    1  UNL1       -0.0483
     13 C           0.0386    3.0447   -1.9448 C.ar    1  UNL1       -0.0348
     14 N          -0.8541    1.8081    1.2602 N.3     1  UNL1       -0.1717
     15 C          -0.9665    3.1337    1.8955 C.3     1  UNL1        0.0209
     16 C          -2.4616    3.2640    2.2793 C.3     1  UNL1       -0.0370
     17 C          -2.8002    1.8125    2.7105 C.3     1  UNL1       -0.0327
     18 C          -1.9547    0.9601    1.7409 C.3     1  UNL1        0.0531
     19 H          -2.5698    0.6321    0.9029 H       1  UNL1        0.0499
     20 C          -1.3870   -0.2554    2.4765 C.3     1  UNL1        0.0800
     21 N          -2.4877   -1.1044    2.9388 N.ar    1  UNL1       -0.1612
     22 N          -3.0096   -1.0715    4.1150 N.ar    1  UNL1       -0.0457
     23 N          -3.9525   -1.9491    4.1807 N.ar    1  UNL1       -0.1073
     24 C          -4.0164   -2.5548    2.9849 C.ar    1  UNL1        0.2111
     25 C          -4.9488   -3.6326    2.5886 C.ar    1  UNL1        0.0598
     26 C          -5.8939   -4.1742    3.3815 C.ar    1  UNL1       -0.0438
     27 C          -6.6445   -5.1683    2.7880 C.ar    1  UNL1       -0.0540
     28 C          -6.3208   -5.4418    1.5209 C.ar    1  UNL1       -0.0236
     29 S          -5.0004   -4.4002    1.0068 S.2     1  UNL1       -0.0934
     30 N          -3.0885   -1.9972    2.2297 N.ar    1  UNL1       -0.1298
     31 H          -1.2451   -0.0690   -1.7594 H       1  UNL1        0.0637
     32 H          -2.0451    0.5542   -4.0032 H       1  UNL1        0.0624
     33 H          -0.1722    4.3659   -3.6123 H       1  UNL1        0.0624
     34 H           0.6246    3.7441   -1.3669 H       1  UNL1        0.0637
     35 H          -0.3405    3.1817    2.7865 H       1  UNL1        0.0444
     36 H          -0.6860    3.9169    1.1912 H       1  UNL1        0.0444
     37 H          -2.5929    3.9587    3.1090 H       1  UNL1        0.0279
     38 H          -3.0606    3.5662    1.4203 H       1  UNL1        0.0279
     39 H          -2.5017    1.6377    3.7441 H       1  UNL1        0.0282
     40 H          -3.8621    1.6077    2.5747 H       1  UNL1        0.0282
     41 H          -0.7489   -0.8241    1.8001 H       1  UNL1        0.0543
     42 H          -0.8016    0.0790    3.3330 H       1  UNL1        0.0543
     43 H          -6.0514   -3.8556    4.4013 H       1  UNL1        0.0630
     44 H          -7.4352   -5.6874    3.3094 H       1  UNL1        0.0623
     45 H          -6.8007   -6.1870    0.9039 H       1  UNL1        0.0693
@<TRIPOS>BOND
     1     1     2    2
     2     2     3    2
     3     2     4    1
     4     2    14    1
     5     4    13   ar
     6     4     5   ar
     7     5     6   ar
     8     5    31    1
     9     6     7   ar
    10     6    32    1
    11     7     8    1
    12     7    12   ar
    13     8     9    1
    14     8    10    1
    15     8    11    1
    16    12    13   ar
    17    12    33    1
    18    13    34    1
    19    14    18    1
    20    14    15    1
    21    15    16    1
    22    15    35    1
    23    15    36    1
    24    16    17    1
    25    16    37    1
    26    16    38    1
    27    17    18    1
    28    17    39    1
    29    17    40    1
    30    18    19    1
    31    18    20    1
    32    20    21    1
    33    20    41    1
    34    20    42    1
    35    21    30   ar
    36    21    22   ar
    37    22    23   ar
    38    23    24   ar
    39    24    25    1
    40    24    30   ar
    41    25    29   ar
    42    25    26   ar
    43    26    27   ar
    44    26    43    1
    45    27    28   ar
    46    27    44    1
    47    28    29   ar
    48    28    45    1
