@<TRIPOS>MOLECULE
ZINC000001138724
 54 56 0 0 0
SMALL
GASTEIGER

@<TRIPOS>ATOM
      1 C          -3.5573   -9.2275   -0.1152 C.3     1  UNL1       -0.0397
      2 C          -2.6433   -8.0297   -0.0861 C.ar    1  UNL1       -0.0503
      3 C          -2.3108   -7.4430    1.1206 C.ar    1  UNL1       -0.0570
      4 C          -1.4724   -6.3443    1.1473 C.ar    1  UNL1       -0.0351
      5 C          -0.9661   -5.8324   -0.0328 C.ar    1  UNL1        0.1055
      6 S           0.1021   -4.4316    0.0011 S.O2    1  UNL1        0.0616
      7 O          -0.0100   -3.8105   -1.2720 O.2     1  UNL1       -0.1528
      8 O          -0.1625   -3.7546    1.2222 O.2     1  UNL1       -0.1528
      9 N           1.6536   -5.0006    0.1087 N.3     1  UNL1       -0.1635
     10 C           2.2155   -5.3532    1.4149 C.3     1  UNL1        0.0971
     11 C           2.0396   -6.8305    1.6553 C.2     1  UNL1        0.2289
     12 O           1.4981   -7.5208    0.8179 O.2     1  UNL1       -0.2743
     13 N           2.4840   -7.3845    2.8007 N.am    1  UNL1       -0.3117
     14 C           2.3129   -8.8206    3.0344 C.3     1  UNL1        0.0379
     15 C           2.8998   -9.1888    4.3985 C.3     1  UNL1        0.0742
     16 H           3.9349   -8.8525    4.4585 H       1  UNL1        0.0611
     17 C           2.8332  -10.7178    4.6018 C.3     1  UNL1       -0.0231
     18 C           2.4507  -10.8343    6.1025 C.3     1  UNL1       -0.0271
     19 C           1.5391   -9.5927    6.2710 C.3     1  UNL1        0.0482
     20 O           2.1292   -8.5779    5.4400 O.3     1  UNL1       -0.3750
     21 C           2.4641   -5.1515   -1.1023 C.3     1  UNL1        0.0460
     22 C           3.3251   -3.9284   -1.2860 C.ar    1  UNL1       -0.0316
     23 C           2.8963   -2.8976   -2.1012 C.ar    1  UNL1       -0.0562
     24 C           3.6855   -1.7755   -2.2697 C.ar    1  UNL1       -0.0475
     25 C           4.9045   -1.6840   -1.6225 C.ar    1  UNL1        0.0179
     26 BR          5.9844   -0.1487   -1.8521 Br      1  UNL1       -0.0503
     27 C           5.3332   -2.7156   -0.8068 C.ar    1  UNL1       -0.0475
     28 C           4.5410   -3.8351   -0.6348 C.ar    1  UNL1       -0.0562
     29 C          -1.2974   -6.4199   -1.2394 C.ar    1  UNL1       -0.0351
     30 C          -2.1328   -7.5210   -1.2658 C.ar    1  UNL1       -0.0570
     31 H          -2.9643  -10.1389   -0.0387 H       1  UNL1        0.0278
     32 H          -4.2521   -9.1747    0.7229 H       1  UNL1        0.0278
     33 H          -4.1164   -9.2352   -1.0508 H       1  UNL1        0.0278
     34 H          -2.7064   -7.8429    2.0426 H       1  UNL1        0.0621
     35 H          -1.2132   -5.8855    2.0900 H       1  UNL1        0.0637
     36 H           3.2770   -5.1062    1.4324 H       1  UNL1        0.0539
     37 H           1.6994   -4.7941    2.1954 H       1  UNL1        0.0539
     38 H           2.9171   -6.8324    3.4704 H       1  UNL1        0.1488
     39 H           1.2514   -9.0677    3.0169 H       1  UNL1        0.0487
     40 H           2.8290   -9.3797    2.2539 H       1  UNL1        0.0487
     41 H           2.0632  -11.1600    3.9697 H       1  UNL1        0.0291
     42 H           3.8034  -11.1769    4.4120 H       1  UNL1        0.0291
     43 H           1.9005  -11.7549    6.2973 H       1  UNL1        0.0288
     44 H           3.3324  -10.7636    6.7394 H       1  UNL1        0.0288
     45 H           0.5273   -9.8177    5.9337 H       1  UNL1        0.0560
     46 H           1.5287   -9.2694    7.3118 H       1  UNL1        0.0560
     47 H           3.0994   -6.0321   -1.0069 H       1  UNL1        0.0493
     48 H           1.8091   -5.2678   -1.9657 H       1  UNL1        0.0493
     49 H           1.9447   -2.9693   -2.6069 H       1  UNL1        0.0621
     50 H           3.3505   -0.9703   -2.9069 H       1  UNL1        0.0629
     51 H           6.2849   -2.6446   -0.3012 H       1  UNL1        0.0629
     52 H           4.8756   -4.6407    0.0020 H       1  UNL1        0.0621
     53 H          -0.9015   -6.0202   -2.1614 H       1  UNL1        0.0637
     54 H          -2.3916   -7.9800   -2.2085 H       1  UNL1        0.0621
@<TRIPOS>BOND
     1     1     2    1
     2     1    31    1
     3     1    32    1
     4     1    33    1
     5     2    30   ar
     6     2     3   ar
     7     3     4   ar
     8     3    34    1
     9     4     5   ar
    10     4    35    1
    11     5     6    1
    12     5    29   ar
    13     6     7    2
    14     6     8    2
    15     6     9    1
    16     9    10    1
    17     9    21    1
    18    10    11    1
    19    10    36    1
    20    10    37    1
    21    11    12    2
    22    11    13   am
    23    13    14    1
    24    13    38    1
    25    14    15    1
    26    14    39    1
    27    14    40    1
    28    15    16    1
    29    15    20    1
    30    15    17    1
    31    17    18    1
    32    17    41    1
    33    17    42    1
    34    18    19    1
    35    18    43    1
    36    18    44    1
    37    19    20    1
    38    19    45    1
    39    19    46    1
    40    21    22    1
    41    21    47    1
    42    21    48    1
    43    22    28   ar
    44    22    23   ar
    45    23    24   ar
    46    23    49    1
    47    24    25   ar
    48    24    50    1
    49    25    26    1
    50    25    27   ar
    51    27    28   ar
    52    27    51    1
    53    28    52    1
    54    29    30   ar
    55    29    53    1
    56    30    54    1
