@<TRIPOS>MOLECULE
ZINC000408621053
 53 54 0 0 0
SMALL
GASTEIGER

@<TRIPOS>ATOM
      1 C          -0.0173    1.4248    0.0099 C.3     1  UNL1        0.0365
      2 O           0.0021   -0.0041    0.0020 O.3     1  UNL1       -0.3812
      3 C           0.6518   -0.5703   -1.1379 C.3     1  UNL1        0.0654
      4 C           0.6131   -2.0967   -1.0411 C.3     1  UNL1        0.0437
      5 H           1.1847   -2.5275   -1.8631 H       1  UNL1        0.0518
      6 C           1.2226   -2.5389    0.2908 C.3     1  UNL1       -0.0445
      7 N          -0.7759   -2.5559   -1.1188 N.am    1  UNL1       -0.3094
      8 C          -1.0505   -3.8014   -1.5545 C.2     1  UNL1        0.2291
      9 O          -0.1478   -4.5420   -1.8822 O.2     1  UNL1       -0.2743
     10 C          -2.4794   -4.2737   -1.6345 C.3     1  UNL1        0.0971
     11 N          -2.5113   -5.6507   -2.1337 N.3     1  UNL1       -0.1635
     12 C          -2.3406   -6.7707   -1.2049 C.3     1  UNL1        0.0460
     13 C          -3.6703   -7.1173   -0.5862 C.ar    1  UNL1       -0.0316
     14 C          -4.0693   -6.5010    0.5851 C.ar    1  UNL1       -0.0570
     15 C          -5.2890   -6.8190    1.1527 C.ar    1  UNL1       -0.0585
     16 C          -6.1099   -7.7528    0.5487 C.ar    1  UNL1       -0.0504
     17 C          -7.4394   -8.0998    1.1676 C.3     1  UNL1       -0.0397
     18 C          -5.7116   -8.3681   -0.6234 C.ar    1  UNL1       -0.0585
     19 C          -4.4936   -8.0473   -1.1930 C.ar    1  UNL1       -0.0570
     20 S          -2.7403   -5.9412   -3.7479 S.O2    1  UNL1        0.0616
     21 O          -3.4052   -7.1936   -3.8398 O.2     1  UNL1       -0.1528
     22 O          -3.2629   -4.7413   -4.3013 O.2     1  UNL1       -0.1528
     23 C          -1.1483   -6.1690   -4.4678 C.ar    1  UNL1        0.1055
     24 C          -0.4532   -5.0830   -4.9661 C.ar    1  UNL1       -0.0353
     25 C           0.7957   -5.2617   -5.5309 C.ar    1  UNL1       -0.0599
     26 C           1.3499   -6.5264   -5.5970 C.ar    1  UNL1       -0.0616
     27 C           0.6552   -7.6123   -5.0978 C.ar    1  UNL1       -0.0599
     28 C          -0.5919   -7.4330   -4.5291 C.ar    1  UNL1       -0.0353
     29 H           1.0053    1.8021    0.0021 H       1  UNL1        0.0523
     30 H          -0.5445    1.7859   -0.8732 H       1  UNL1        0.0523
     31 H          -0.5275    1.7763    0.9067 H       1  UNL1        0.0523
     32 H           0.1385   -0.2506   -2.0447 H       1  UNL1        0.0578
     33 H           1.6883   -0.2344   -1.1694 H       1  UNL1        0.0578
     34 H           2.2560   -2.1973    0.3487 H       1  UNL1        0.0248
     35 H           0.6509   -2.1081    1.1128 H       1  UNL1        0.0248
     36 H           1.1950   -3.6264    0.3598 H       1  UNL1        0.0248
     37 H          -1.4979   -1.9635   -0.8568 H       1  UNL1        0.1491
     38 H          -2.9305   -4.2361   -0.6430 H       1  UNL1        0.0539
     39 H          -3.0379   -3.6284   -2.3125 H       1  UNL1        0.0539
     40 H          -1.9549   -7.6352   -1.7451 H       1  UNL1        0.0493
     41 H          -1.6376   -6.4888   -0.4210 H       1  UNL1        0.0493
     42 H          -3.4279   -5.7714    1.0570 H       1  UNL1        0.0621
     43 H          -5.6004   -6.3380    2.0682 H       1  UNL1        0.0620
     44 H          -8.2086   -7.4365    0.7719 H       1  UNL1        0.0278
     45 H          -7.6927   -9.1328    0.9293 H       1  UNL1        0.0278
     46 H          -7.3786   -7.9809    2.2494 H       1  UNL1        0.0278
     47 H          -6.3532   -9.0974   -1.0955 H       1  UNL1        0.0620
     48 H          -4.1823   -8.5280   -2.1087 H       1  UNL1        0.0621
     49 H          -0.8861   -4.0949   -4.9145 H       1  UNL1        0.0637
     50 H           1.3385   -4.4133   -5.9209 H       1  UNL1        0.0618
     51 H           2.3254   -6.6661   -6.0389 H       1  UNL1        0.0618
     52 H           1.0880   -8.6004   -5.1497 H       1  UNL1        0.0618
     53 H          -1.1346   -8.2813   -4.1392 H       1  UNL1        0.0637
@<TRIPOS>BOND
     1     1     2    1
     2     1    29    1
     3     1    30    1
     4     1    31    1
     5     2     3    1
     6     3     4    1
     7     3    32    1
     8     3    33    1
     9     4     5    1
    10     4     6    1
    11     4     7    1
    12     6    34    1
    13     6    35    1
    14     6    36    1
    15     7     8   am
    16     7    37    1
    17     8     9    2
    18     8    10    1
    19    10    11    1
    20    10    38    1
    21    10    39    1
    22    11    12    1
    23    20    11    1
    24    12    13    1
    25    12    40    1
    26    12    41    1
    27    13    19   ar
    28    13    14   ar
    29    14    15   ar
    30    14    42    1
    31    15    16   ar
    32    15    43    1
    33    16    17    1
    34    16    18   ar
    35    17    44    1
    36    17    45    1
    37    17    46    1
    38    18    19   ar
    39    18    47    1
    40    19    48    1
    41    20    21    2
    42    20    22    2
    43    20    23    1
    44    23    28   ar
    45    23    24   ar
    46    24    25   ar
    47    24    49    1
    48    25    26   ar
    49    25    50    1
    50    26    27   ar
    51    26    51    1
    52    27    28   ar
    53    27    52    1
    54    28    53    1
