@<TRIPOS>MOLECULE
ZINC000408586447
 65 68 0 0 0
SMALL
GASTEIGER

@<TRIPOS>ATOM
      1 C          -1.3954    4.0210    1.6688 C.3     1  UNL1       -0.0191
      2 C          -1.1062    2.5346    1.8879 C.3     1  UNL1        0.1728
      3 H          -0.4448    2.1733    1.1005 H       1  UNL1        0.0828
      4 O          -2.3320    1.8009    1.8543 O.3     1  UNL1       -0.4799
      5 C          -2.7895    1.4196    0.6328 C.ar    1  UNL1        0.1217
      6 C          -2.1130    1.8072   -0.5147 C.ar    1  UNL1       -0.0181
      7 C          -2.5798    1.4179   -1.7552 C.ar    1  UNL1       -0.0319
      8 C          -3.7206    0.6429   -1.8538 C.ar    1  UNL1        0.1057
      9 S          -4.3137    0.1485   -3.4376 S.O2    1  UNL1        0.0614
     10 O          -5.7160   -0.0365   -3.3011 O.2     1  UNL1       -0.1528
     11 O          -3.7357    1.0418   -4.3794 O.2     1  UNL1       -0.1528
     12 N          -3.6739   -1.3453   -3.7562 N.3     1  UNL1       -0.1680
     13 C          -4.3794   -2.5527   -3.3195 C.3     1  UNL1        0.0459
     14 C          -5.2303   -3.0736   -4.4490 C.ar    1  UNL1       -0.0317
     15 C          -6.5339   -2.6362   -4.5908 C.ar    1  UNL1       -0.0573
     16 C          -7.3144   -3.1139   -5.6269 C.ar    1  UNL1       -0.0615
     17 C          -6.7912   -4.0288   -6.5214 C.ar    1  UNL1       -0.0617
     18 C          -5.4873   -4.4655   -6.3801 C.ar    1  UNL1       -0.0615
     19 C          -4.7054   -3.9845   -5.3465 C.ar    1  UNL1       -0.0573
     20 C          -2.4024   -1.4595   -4.4748 C.3     1  UNL1        0.0459
     21 C          -1.3036   -1.7987   -3.5008 C.ar    1  UNL1       -0.0317
     22 C          -0.5227   -0.7932   -2.9622 C.ar    1  UNL1       -0.0573
     23 C           0.4852   -1.1044   -2.0687 C.ar    1  UNL1       -0.0615
     24 C           0.7119   -2.4209   -1.7136 C.ar    1  UNL1       -0.0617
     25 C          -0.0696   -3.4263   -2.2516 C.ar    1  UNL1       -0.0615
     26 C          -1.0803   -3.1147   -3.1417 C.ar    1  UNL1       -0.0573
     27 C          -4.3964    0.2549   -0.7117 C.ar    1  UNL1       -0.0319
     28 C          -3.9307    0.6372    0.5314 C.ar    1  UNL1       -0.0181
     29 C          -0.4433    2.3440    3.2278 C.2     1  UNL1        0.2562
     30 O          -1.0755    1.8906    4.1582 O.2     1  UNL1       -0.2715
     31 N           0.8522    2.6774    3.3921 N.am    1  UNL1       -0.2941
     32 C           1.6129    3.3185    2.3078 C.3     1  UNL1        0.0383
     33 C           2.3036    4.5648    2.8731 C.3     1  UNL1        0.0635
     34 O           3.0449    4.2032    4.0408 O.3     1  UNL1       -0.3767
     35 C           2.2417    3.7020    5.1120 C.3     1  UNL1        0.0635
     36 C           1.5462    2.4166    4.6633 C.3     1  UNL1        0.0383
     37 H          -0.4760    4.5926    1.7958 H       1  UNL1        0.0270
     38 H          -1.7803    4.1715    0.6602 H       1  UNL1        0.0270
     39 H          -2.1358    4.3579    2.3943 H       1  UNL1        0.0270
     40 H          -1.2222    2.4131   -0.4382 H       1  UNL1        0.0655
     41 H          -2.0534    1.7194   -2.6487 H       1  UNL1        0.0638
     42 H          -3.6538   -3.3131   -3.0307 H       1  UNL1        0.0493
     43 H          -5.0145   -2.3139   -2.4664 H       1  UNL1        0.0493
     44 H          -6.9427   -1.9214   -3.8919 H       1  UNL1        0.0621
     45 H          -8.3332   -2.7727   -5.7372 H       1  UNL1        0.0618
     46 H          -7.4012   -4.4026   -7.3304 H       1  UNL1        0.0618
     47 H          -5.0786   -5.1805   -7.0787 H       1  UNL1        0.0618
     48 H          -3.6867   -4.3257   -5.2362 H       1  UNL1        0.0621
     49 H          -2.4785   -2.2464   -5.2252 H       1  UNL1        0.0493
     50 H          -2.1750   -0.5121   -4.9636 H       1  UNL1        0.0493
     51 H          -0.6998    0.2354   -3.2396 H       1  UNL1        0.0621
     52 H           1.0957   -0.3189   -1.6484 H       1  UNL1        0.0618
     53 H           1.4998   -2.6641   -1.0161 H       1  UNL1        0.0618
     54 H           0.1078   -4.4550   -1.9744 H       1  UNL1        0.0618
     55 H          -1.6908   -3.9002   -3.5620 H       1  UNL1        0.0621
     56 H          -5.2871   -0.3508   -0.7913 H       1  UNL1        0.0638
     57 H          -4.4590    0.3338    1.4232 H       1  UNL1        0.0655
     58 H           2.3620    2.6253    1.9252 H       1  UNL1        0.0487
     59 H           0.9348    3.6071    1.5046 H       1  UNL1        0.0487
     60 H           2.9810    4.9766    2.1249 H       1  UNL1        0.0575
     61 H           1.5526    5.3102    3.1349 H       1  UNL1        0.0575
     62 H           2.8744    3.4930    5.9745 H       1  UNL1        0.0575
     63 H           1.4904    4.4442    5.3819 H       1  UNL1        0.0575
     64 H           0.8254    2.1059    5.4197 H       1  UNL1        0.0487
     65 H           2.2868    1.6305    4.5163 H       1  UNL1        0.0487
@<TRIPOS>BOND
     1     1     2    1
     2     1    37    1
     3     1    38    1
     4     1    39    1
     5     2     3    1
     6     2     4    1
     7     2    29    1
     8     4     5    1
     9     5    28   ar
    10     5     6   ar
    11     6     7   ar
    12     6    40    1
    13     7     8   ar
    14     7    41    1
    15     8     9    1
    16     8    27   ar
    17     9    10    2
    18     9    11    2
    19     9    12    1
    20    12    13    1
    21    12    20    1
    22    13    14    1
    23    13    42    1
    24    13    43    1
    25    14    19   ar
    26    14    15   ar
    27    15    16   ar
    28    15    44    1
    29    16    17   ar
    30    16    45    1
    31    17    18   ar
    32    17    46    1
    33    18    19   ar
    34    18    47    1
    35    19    48    1
    36    20    21    1
    37    20    49    1
    38    20    50    1
    39    21    26   ar
    40    21    22   ar
    41    22    23   ar
    42    22    51    1
    43    23    24   ar
    44    23    52    1
    45    24    25   ar
    46    24    53    1
    47    25    26   ar
    48    25    54    1
    49    26    55    1
    50    27    28   ar
    51    27    56    1
    52    28    57    1
    53    29    30    2
    54    29    31   am
    55    31    36    1
    56    31    32    1
    57    32    33    1
    58    32    58    1
    59    32    59    1
    60    33    34    1
    61    33    60    1
    62    33    61    1
    63    34    35    1
    64    35    36    1
    65    35    62    1
    66    35    63    1
    67    36    64    1
    68    36    65    1
