@<TRIPOS>MOLECULE
ZINC000007703268
 33 34 0 0 0
SMALL
GASTEIGER

@<TRIPOS>ATOM
      1 C          -0.0187    1.5258    0.0104 C.3     1  UNL1       -0.0478
      2 C           0.0021   -0.0041    0.0020 C.3     1  UNL1        0.0288
      3 H          -1.0205   -0.3814    0.0098 H       1  UNL1        0.0477
      4 N           0.6878   -0.4765   -1.2033 N.3     1  UNL1       -0.1869
      5 S          -0.1875   -0.8749   -2.5515 S.O2    1  UNL1        0.0586
      6 O           0.7554   -1.2569   -3.5436 O.2     1  UNL1       -0.1530
      7 O          -1.2390   -1.7231   -2.1111 O.2     1  UNL1       -0.1530
      8 C          -0.9508    0.6028   -3.1332 C.ar    1  UNL1        0.1053
      9 C          -2.2030    0.9621   -2.6710 C.ar    1  UNL1       -0.0348
     10 C          -2.8018    2.1214   -3.1274 C.ar    1  UNL1       -0.0483
     11 C          -2.1482    2.9217   -4.0457 C.ar    1  UNL1        0.0549
     12 C          -2.8013    4.1853   -4.5436 C.3     1  UNL1        0.4174
     13 F          -2.4464    5.2527   -3.7117 F       1  UNL1       -0.1659
     14 F          -2.3724    4.4487   -5.8489 F       1  UNL1       -0.1659
     15 F          -4.1913    4.0275   -4.5323 F       1  UNL1       -0.1659
     16 C          -0.8954    2.5631   -4.5068 C.ar    1  UNL1       -0.0483
     17 C          -0.2949    1.4058   -4.0476 C.ar    1  UNL1       -0.0348
     18 C           0.7421   -0.5109    1.2415 C.3     1  UNL1       -0.0242
     19 C           1.3697    0.5341    2.1662 C.3     1  UNL1       -0.0485
     20 C           0.1144   -0.2216    2.6065 C.3     1  UNL1       -0.0485
     21 H           1.0039    1.9031    0.0027 H       1  UNL1        0.0245
     22 H          -0.5459    1.8868   -0.8726 H       1  UNL1        0.0245
     23 H          -0.5289    1.8773    0.9072 H       1  UNL1        0.0245
     24 H           1.6545   -0.5560   -1.2117 H       1  UNL1        0.1483
     25 H          -2.7137    0.3369   -1.9536 H       1  UNL1        0.0637
     26 H          -3.7805    2.4017   -2.7668 H       1  UNL1        0.0624
     27 H          -0.3845    3.1886   -5.2240 H       1  UNL1        0.0624
     28 H           0.6839    1.1257   -4.4079 H       1  UNL1        0.0637
     29 H           1.2689   -1.4574    1.1203 H       1  UNL1        0.0316
     30 H           2.3098    0.2753    2.6533 H       1  UNL1        0.0269
     31 H           1.2554    1.5827    1.8914 H       1  UNL1        0.0269
     32 H          -0.8257    0.3298    2.6215 H       1  UNL1        0.0269
     33 H           0.2287   -0.9776    3.3834 H       1  UNL1        0.0269
@<TRIPOS>BOND
     1     1     2    1
     2     1    21    1
     3     1    22    1
     4     1    23    1
     5     2     3    1
     6     2     4    1
     7     2    18    1
     8     5     4    1
     9     4    24    1
    10     5     6    2
    11     5     7    2
    12     5     8    1
    13     8    17   ar
    14     8     9   ar
    15     9    10   ar
    16     9    25    1
    17    10    11   ar
    18    10    26    1
    19    11    12    1
    20    11    16   ar
    21    12    13    1
    22    12    14    1
    23    12    15    1
    24    16    17   ar
    25    16    27    1
    26    17    28    1
    27    18    20    1
    28    18    19    1
    29    18    29    1
    30    19    20    1
    31    19    30    1
    32    19    31    1
    33    20    32    1
    34    20    33    1
