@<TRIPOS>MOLECULE
ZINC000000464363
 39 40 0 0 0
SMALL
GASTEIGER

@<TRIPOS>ATOM
      1 C          -0.0187    1.5258    0.0104 C.3     1  UNL1       -0.0612
      2 C           0.0021   -0.0041    0.0020 C.3     1  UNL1       -0.0292
      3 H          -1.0203   -0.3818    0.0098 H       1  UNL1        0.0311
      4 C           0.7197   -0.4983   -1.2561 C.3     1  UNL1       -0.0454
      5 C           2.1447    0.0591   -1.2848 C.3     1  UNL1       -0.0292
      6 H           2.1098    1.1484   -1.2667 H       1  UNL1        0.0311
      7 C           2.8502   -0.4081   -2.5595 C.3     1  UNL1       -0.0612
      8 C           2.9119   -0.4483   -0.0597 C.3     1  UNL1        0.0231
      9 N           2.1531   -0.1028    1.1500 N.3     1  UNL1       -0.1761
     10 S           2.8710    0.7328    2.3864 S.O2    1  UNL1        0.0609
     11 O           2.1258    0.4336    3.5587 O.2     1  UNL1       -0.1528
     12 O           4.2677    0.4971    2.2721 O.2     1  UNL1       -0.1528
     13 C           2.6281    2.4484    2.0667 C.ar    1  UNL1        0.1060
     14 C           3.5557    3.1504    1.3204 C.ar    1  UNL1       -0.0353
     15 C           3.3651    4.4966    1.0695 C.ar    1  UNL1       -0.0594
     16 C           2.2467    5.1402    1.5647 C.ar    1  UNL1       -0.0500
     17 C           1.3183    4.4378    2.3105 C.ar    1  UNL1        0.0567
     18 C           0.0991    5.1397    2.8508 C.3     1  UNL1        0.4175
     19 F           0.1284    6.4854    2.4694 F       1  UNL1       -0.1659
     20 F          -1.0531    4.5346    2.3376 F       1  UNL1       -0.1659
     21 F           0.0902    5.0508    4.2469 F       1  UNL1       -0.1659
     22 C           1.5067    3.0911    2.5576 C.ar    1  UNL1       -0.0237
     23 C           0.7443   -0.5122    1.2421 C.3     1  UNL1        0.0231
     24 H           1.0039    1.9031    0.0027 H       1  UNL1        0.0233
     25 H          -0.5459    1.8868   -0.8726 H       1  UNL1        0.0233
     26 H          -0.5289    1.8773    0.9072 H       1  UNL1        0.0233
     27 H           0.7559   -1.5876   -1.2493 H       1  UNL1        0.0271
     28 H           0.1791   -0.1587   -2.1396 H       1  UNL1        0.0271
     29 H           2.3022   -0.0488   -3.4306 H       1  UNL1        0.0233
     30 H           3.8651   -0.0109   -2.5795 H       1  UNL1        0.0233
     31 H           2.8860   -1.4974   -2.5766 H       1  UNL1        0.0233
     32 H           3.0263   -1.5305   -0.1227 H       1  UNL1        0.0446
     33 H           3.8938    0.0234   -0.0223 H       1  UNL1        0.0446
     34 H           4.4296    2.6474    0.9335 H       1  UNL1        0.0637
     35 H           4.0903    5.0453    0.4870 H       1  UNL1        0.0618
     36 H           2.0981    6.1920    1.3693 H       1  UNL1        0.0623
     37 H           0.7815    2.5423    3.1402 H       1  UNL1        0.0642
     38 H           0.2967   -0.0824    2.1382 H       1  UNL1        0.0446
     39 H           0.6819   -1.5995    1.2854 H       1  UNL1        0.0446
@<TRIPOS>BOND
     1     1     2    1
     2     1    24    1
     3     1    25    1
     4     1    26    1
     5     2     3    1
     6     2    23    1
     7     2     4    1
     8     4     5    1
     9     4    27    1
    10     4    28    1
    11     5     6    1
    12     5     7    1
    13     5     8    1
    14     7    29    1
    15     7    30    1
    16     7    31    1
    17     8     9    1
    18     8    32    1
    19     8    33    1
    20    10     9    1
    21     9    23    1
    22    10    11    2
    23    10    12    2
    24    10    13    1
    25    13    22   ar
    26    13    14   ar
    27    14    15   ar
    28    14    34    1
    29    15    16   ar
    30    15    35    1
    31    16    17   ar
    32    16    36    1
    33    17    18    1
    34    17    22   ar
    35    18    19    1
    36    18    20    1
    37    18    21    1
    38    22    37    1
    39    23    38    1
    40    23    39    1
