@<TRIPOS>MOLECULE
ZINC000000780804
 54 56 0 0 0
SMALL
GASTEIGER

@<TRIPOS>ATOM
      1 C          -3.5572   -9.2277   -0.1151 C.3     1  UNL1       -0.0397
      2 C          -2.6432   -8.0298   -0.0861 C.ar    1  UNL1       -0.0503
      3 C          -2.3106   -7.4432    1.1206 C.ar    1  UNL1       -0.0570
      4 C          -1.4722   -6.3445    1.1472 C.ar    1  UNL1       -0.0351
      5 C          -0.9661   -5.8325   -0.0329 C.ar    1  UNL1        0.1055
      6 S           0.1021   -4.4316    0.0010 S.O2    1  UNL1        0.0616
      7 O          -0.0101   -3.8106   -1.2722 O.2     1  UNL1       -0.1528
      8 O          -0.1627   -3.7546    1.2220 O.2     1  UNL1       -0.1528
      9 N           1.6535   -5.0006    0.1087 N.3     1  UNL1       -0.1635
     10 C           2.2155   -5.3531    1.4149 C.3     1  UNL1        0.0971
     11 C           2.0395   -6.8304    1.6553 C.2     1  UNL1        0.2289
     12 O           1.4981   -7.5208    0.8180 O.2     1  UNL1       -0.2743
     13 N           2.4839   -7.3843    2.8008 N.am    1  UNL1       -0.3117
     14 C           2.3129   -8.8204    3.0346 C.3     1  UNL1        0.0379
     15 C           2.8997   -9.1885    4.3987 C.3     1  UNL1        0.0742
     16 H           3.9348   -8.8522    4.4588 H       1  UNL1        0.0611
     17 C           2.8332  -10.7175    4.6021 C.3     1  UNL1       -0.0231
     18 C           2.4506  -10.8340    6.1028 C.3     1  UNL1       -0.0271
     19 C           1.5390   -9.5924    6.2711 C.3     1  UNL1        0.0482
     20 O           2.1291   -8.5776    5.4401 O.3     1  UNL1       -0.3750
     21 C           2.4641   -5.1515   -1.1023 C.3     1  UNL1        0.0461
     22 C           3.3251   -3.9284   -1.2860 C.ar    1  UNL1       -0.0315
     23 C           2.8960   -2.8978   -2.1013 C.ar    1  UNL1       -0.0546
     24 C           3.6847   -1.7757   -2.2706 C.ar    1  UNL1       -0.0262
     25 C           4.9050   -1.6838   -1.6229 C.ar    1  UNL1        0.1234
     26 F           5.6767   -0.5871   -1.7873 F       1  UNL1       -0.2055
     27 C           5.3336   -2.7164   -0.8062 C.ar    1  UNL1       -0.0262
     28 C           4.5409   -3.8355   -0.6346 C.ar    1  UNL1       -0.0546
     29 C          -1.2976   -6.4199   -1.2395 C.ar    1  UNL1       -0.0351
     30 C          -2.1329   -7.5210   -1.2658 C.ar    1  UNL1       -0.0570
     31 H          -2.9642  -10.1391   -0.0388 H       1  UNL1        0.0278
     32 H          -4.2519   -9.1750    0.7231 H       1  UNL1        0.0278
     33 H          -4.1165   -9.2354   -1.0507 H       1  UNL1        0.0278
     34 H          -2.7060   -7.8432    2.0426 H       1  UNL1        0.0621
     35 H          -1.2129   -5.8858    2.0900 H       1  UNL1        0.0637
     36 H           3.2769   -5.1060    1.4325 H       1  UNL1        0.0539
     37 H           1.6993   -4.7940    2.1953 H       1  UNL1        0.0539
     38 H           2.9170   -6.8321    3.4705 H       1  UNL1        0.1488
     39 H           1.2514   -9.0675    3.0170 H       1  UNL1        0.0487
     40 H           2.8290   -9.3795    2.2541 H       1  UNL1        0.0487
     41 H           2.0632  -11.1598    3.9700 H       1  UNL1        0.0291
     42 H           3.8034  -11.1766    4.4124 H       1  UNL1        0.0291
     43 H           1.9005  -11.7546    6.2976 H       1  UNL1        0.0288
     44 H           3.3324  -10.7632    6.7397 H       1  UNL1        0.0288
     45 H           0.5272   -9.8174    5.9339 H       1  UNL1        0.0560
     46 H           1.5286   -9.2690    7.3120 H       1  UNL1        0.0560
     47 H           3.0994   -6.0321   -1.0069 H       1  UNL1        0.0493
     48 H           1.8091   -5.2678   -1.9657 H       1  UNL1        0.0493
     49 H           1.9441   -2.9697   -2.6065 H       1  UNL1        0.0622
     50 H           3.3496   -0.9710   -2.9082 H       1  UNL1        0.0646
     51 H           6.2854   -2.6460   -0.3007 H       1  UNL1        0.0646
     52 H           4.8749   -4.6409    0.0027 H       1  UNL1        0.0622
     53 H          -0.9019   -6.0202   -2.1614 H       1  UNL1        0.0637
     54 H          -2.3919   -7.9799   -2.2085 H       1  UNL1        0.0621
@<TRIPOS>BOND
     1     1     2    1
     2     1    31    1
     3     1    32    1
     4     1    33    1
     5     2    30   ar
     6     2     3   ar
     7     3     4   ar
     8     3    34    1
     9     4     5   ar
    10     4    35    1
    11     5     6    1
    12     5    29   ar
    13     6     7    2
    14     6     8    2
    15     6     9    1
    16     9    10    1
    17     9    21    1
    18    10    11    1
    19    10    36    1
    20    10    37    1
    21    11    12    2
    22    11    13   am
    23    13    14    1
    24    13    38    1
    25    14    15    1
    26    14    39    1
    27    14    40    1
    28    15    16    1
    29    15    20    1
    30    15    17    1
    31    17    18    1
    32    17    41    1
    33    17    42    1
    34    18    19    1
    35    18    43    1
    36    18    44    1
    37    19    20    1
    38    19    45    1
    39    19    46    1
    40    21    22    1
    41    21    47    1
    42    21    48    1
    43    22    28   ar
    44    22    23   ar
    45    23    24   ar
    46    23    49    1
    47    24    25   ar
    48    24    50    1
    49    25    26    1
    50    25    27   ar
    51    27    28   ar
    52    27    51    1
    53    28    52    1
    54    29    30   ar
    55    29    53    1
    56    30    54    1
