@<TRIPOS>MOLECULE
ZINC000408611087
 63 65 0 0 0
SMALL
GASTEIGER

@<TRIPOS>ATOM
      1 C          -9.0478   -6.1173    4.1560 C.3     1  UNL1        0.0788
      2 O          -9.2316   -4.7919    3.6545 O.3     1  UNL1       -0.4951
      3 C          -8.2799   -4.3143    2.8100 C.ar    1  UNL1        0.1202
      4 C          -7.1945   -5.1072    2.4666 C.ar    1  UNL1       -0.0181
      5 C          -6.2287   -4.6195    1.6076 C.ar    1  UNL1       -0.0319
      6 C          -6.3429   -3.3423    1.0907 C.ar    1  UNL1        0.1057
      7 S          -5.1090   -2.7230   -0.0042 S.O2    1  UNL1        0.0616
      8 O          -5.1590   -1.3064    0.0950 O.2     1  UNL1       -0.1528
      9 O          -3.9324   -3.4788    0.2486 O.2     1  UNL1       -0.1528
     10 N          -5.5858   -3.1011   -1.5443 N.3     1  UNL1       -0.1635
     11 C          -5.2909   -4.4249   -2.0982 C.3     1  UNL1        0.0971
     12 C          -6.4778   -5.3308   -1.8937 C.2     1  UNL1        0.2290
     13 O          -7.4721   -4.9119   -1.3398 O.2     1  UNL1       -0.2743
     14 N          -6.4343   -6.6065   -2.3264 N.am    1  UNL1       -0.3116
     15 C          -7.5881   -7.4871   -2.1276 C.3     1  UNL1        0.0206
     16 H          -8.0696   -7.2467   -1.1797 H       1  UNL1        0.0495
     17 C          -8.5849   -7.2877   -3.2710 C.3     1  UNL1       -0.0466
     18 C          -7.1204   -8.9437   -2.1070 C.3     1  UNL1       -0.0308
     19 C          -6.2214   -9.1735   -0.8904 C.3     1  UNL1       -0.0260
     20 C          -5.7607  -10.6083   -0.8702 C.ar    1  UNL1       -0.0473
     21 C          -6.5110  -11.5659   -0.2137 C.ar    1  UNL1       -0.0586
     22 C          -6.0884  -12.8819   -0.1951 C.ar    1  UNL1       -0.0615
     23 C          -4.9158  -13.2404   -0.8333 C.ar    1  UNL1       -0.0617
     24 C          -4.1660  -12.2830   -1.4906 C.ar    1  UNL1       -0.0615
     25 C          -4.5908  -10.9677   -1.5128 C.ar    1  UNL1       -0.0586
     26 C          -6.3025   -2.1118   -2.3529 C.3     1  UNL1        0.0460
     27 C          -5.3245   -1.3823   -3.2373 C.ar    1  UNL1       -0.0317
     28 C          -4.7921   -0.1736   -2.8293 C.ar    1  UNL1       -0.0573
     29 C          -3.8950    0.4956   -3.6406 C.ar    1  UNL1       -0.0615
     30 C          -3.5299   -0.0441   -4.8598 C.ar    1  UNL1       -0.0617
     31 C          -4.0616   -1.2533   -5.2674 C.ar    1  UNL1       -0.0615
     32 C          -4.9555   -1.9245   -4.4542 C.ar    1  UNL1       -0.0573
     33 C          -7.4239   -2.5502    1.4311 C.ar    1  UNL1       -0.0319
     34 C          -8.3951   -3.0351    2.2855 C.ar    1  UNL1       -0.0181
     35 H          -9.8761   -6.3740    4.8164 H       1  UNL1        0.0660
     36 H          -9.0160   -6.8198    3.3231 H       1  UNL1        0.0660
     37 H          -8.1111   -6.1692    4.7110 H       1  UNL1        0.0660
     38 H          -7.1045   -6.1047    2.8707 H       1  UNL1        0.0655
     39 H          -5.3836   -5.2364    1.3400 H       1  UNL1        0.0638
     40 H          -5.0823   -4.3345   -3.1642 H       1  UNL1        0.0539
     41 H          -4.4217   -4.8451   -1.5922 H       1  UNL1        0.0539
     42 H          -5.6391   -6.9416   -2.7694 H       1  UNL1        0.1490
     43 H          -8.9181   -6.2499   -3.2857 H       1  UNL1        0.0247
     44 H          -8.1034   -7.5281   -4.2189 H       1  UNL1        0.0247
     45 H          -9.4433   -7.9429   -3.1231 H       1  UNL1        0.0247
     46 H          -7.9866   -9.6027   -2.0483 H       1  UNL1        0.0286
     47 H          -6.5613   -9.1587   -3.0177 H       1  UNL1        0.0286
     48 H          -5.3552   -8.5146   -0.9491 H       1  UNL1        0.0314
     49 H          -6.7805   -8.9585    0.0202 H       1  UNL1        0.0314
     50 H          -7.4271  -11.2858    0.2850 H       1  UNL1        0.0620
     51 H          -6.6742  -13.6300    0.3184 H       1  UNL1        0.0618
     52 H          -4.5853  -14.2685   -0.8182 H       1  UNL1        0.0618
     53 H          -3.2497  -12.5630   -1.9889 H       1  UNL1        0.0618
     54 H          -4.0050  -10.2196   -2.0263 H       1  UNL1        0.0620
     55 H          -7.0448   -2.6168   -2.9711 H       1  UNL1        0.0493
     56 H          -6.8010   -1.3985   -1.6965 H       1  UNL1        0.0493
     57 H          -5.0774    0.2481   -1.8768 H       1  UNL1        0.0621
     58 H          -3.4796    1.4403   -3.3221 H       1  UNL1        0.0618
     59 H          -2.8296    0.4791   -5.4939 H       1  UNL1        0.0618
     60 H          -3.7766   -1.6748   -6.2200 H       1  UNL1        0.0618
     61 H          -5.3709   -2.8692   -4.7726 H       1  UNL1        0.0621
     62 H          -7.5110   -1.5530    1.0257 H       1  UNL1        0.0638
     63 H          -9.2393   -2.4161    2.5511 H       1  UNL1        0.0655
@<TRIPOS>BOND
     1     1     2    1
     2     1    35    1
     3     1    36    1
     4     1    37    1
     5     2     3    1
     6     3    34   ar
     7     3     4   ar
     8     4     5   ar
     9     4    38    1
    10     5     6   ar
    11     5    39    1
    12     6     7    1
    13     6    33   ar
    14     7     8    2
    15     7     9    2
    16     7    10    1
    17    10    11    1
    18    10    26    1
    19    11    12    1
    20    11    40    1
    21    11    41    1
    22    12    13    2
    23    12    14   am
    24    14    15    1
    25    14    42    1
    26    15    16    1
    27    15    17    1
    28    15    18    1
    29    17    43    1
    30    17    44    1
    31    17    45    1
    32    18    19    1
    33    18    46    1
    34    18    47    1
    35    19    20    1
    36    19    48    1
    37    19    49    1
    38    20    25   ar
    39    20    21   ar
    40    21    22   ar
    41    21    50    1
    42    22    23   ar
    43    22    51    1
    44    23    24   ar
    45    23    52    1
    46    24    25   ar
    47    24    53    1
    48    25    54    1
    49    26    27    1
    50    26    55    1
    51    26    56    1
    52    27    32   ar
    53    27    28   ar
    54    28    29   ar
    55    28    57    1
    56    29    30   ar
    57    29    58    1
    58    30    31   ar
    59    30    59    1
    60    31    32   ar
    61    31    60    1
    62    32    61    1
    63    33    34   ar
    64    33    62    1
    65    34    63    1
