@<TRIPOS>MOLECULE
ZINC000004452616
 41 43 0 0 0
SMALL
GASTEIGER

@<TRIPOS>ATOM
      1 O           0.0021   -0.0041    0.0020 O.2     1  UNL1       -0.2754
      2 C          -0.0144    1.2086    0.0087 C.2     1  UNL1        0.2182
      3 N           1.1435    1.8983    0.0013 N.am    1  UNL1       -0.2796
      4 C           2.4220    1.1832   -0.0147 C.3     1  UNL1        0.2776
      5 C           2.5831    0.3433    1.2540 C.3     1  UNL1        0.4365
      6 F           1.5516   -0.5992    1.3235 F       1  UNL1       -0.1662
      7 F           3.8164   -0.3165    1.2230 F       1  UNL1       -0.1662
      8 F           2.5288    1.1777    2.3756 F       1  UNL1       -0.1662
      9 N           3.5427    2.1281   -0.1603 N.am    1  UNL1       -0.2632
     10 C           4.1664    1.8112   -1.3094 C.2     1  UNL1        0.3107
     11 O           5.1419    2.3994   -1.7331 O.2     1  UNL1       -0.2521
     12 N           3.5929    0.7761   -1.9335 N.am    1  UNL1       -0.2222
     13 C           4.0633    0.2175   -3.2035 C.3     1  UNL1        0.0279
     14 C           5.0868   -0.8858   -2.9274 C.3     1  UNL1       -0.0113
     15 C           5.5708   -1.4604   -4.2338 C.ar    1  UNL1       -0.0459
     16 C           4.9083   -2.5302   -4.8060 C.ar    1  UNL1       -0.0585
     17 C           5.3522   -3.0573   -6.0043 C.ar    1  UNL1       -0.0615
     18 C           6.4583   -2.5142   -6.6307 C.ar    1  UNL1       -0.0617
     19 C           7.1203   -1.4438   -6.0590 C.ar    1  UNL1       -0.0615
     20 C           6.6738   -0.9140   -4.8628 C.ar    1  UNL1       -0.0585
     21 C           2.5293    0.3103   -1.2493 C.2     1  UNL1        0.2742
     22 O           1.8089   -0.6150   -1.5568 O.2     1  UNL1       -0.2706
     23 C          -1.3296    1.9443    0.0189 C.3     1  UNL1        0.0357
     24 C          -2.1936    1.8643   -1.2412 C.3     1  UNL1       -0.0412
     25 C          -2.6086    1.1047    0.0204 C.3     1  UNL1       -0.0412
     26 H           1.1304    2.8682    0.0067 H       1  UNL1        0.1515
     27 H           3.7835    2.8404    0.4525 H       1  UNL1        0.1530
     28 H           3.2188   -0.1994   -3.7521 H       1  UNL1        0.0473
     29 H           4.5288    1.0048   -3.7965 H       1  UNL1        0.0473
     30 H           5.9314   -0.4688   -2.3788 H       1  UNL1        0.0329
     31 H           4.6214   -1.6730   -2.3345 H       1  UNL1        0.0329
     32 H           4.0440   -2.9545   -4.3166 H       1  UNL1        0.0620
     33 H           4.8350   -3.8936   -6.4510 H       1  UNL1        0.0618
     34 H           6.8056   -2.9265   -7.5666 H       1  UNL1        0.0618
     35 H           7.9847   -1.0197   -6.5482 H       1  UNL1        0.0618
     36 H           7.1910   -0.0777   -4.4162 H       1  UNL1        0.0620
     37 H          -1.3407    2.8795    0.5787 H       1  UNL1        0.0394
     38 H          -2.7733    2.7471   -1.5108 H       1  UNL1        0.0273
     39 H          -1.8108    1.2795   -2.0776 H       1  UNL1        0.0273
     40 H          -2.4989    0.0203    0.0140 H       1  UNL1        0.0273
     41 H          -3.4614    1.4878    0.5808 H       1  UNL1        0.0273
@<TRIPOS>BOND
     1     1     2    2
     2     2     3   am
     3     2    23    1
     4     3    26    1
     5     4     3    1
     6     4    21    1
     7     4     5    1
     8     4     9    1
     9     5     6    1
    10     5     7    1
    11     5     8    1
    12     9    10   am
    13     9    27    1
    14    10    11    2
    15    10    12   am
    16    12    13    1
    17    12    21   am
    18    13    14    1
    19    13    28    1
    20    13    29    1
    21    14    15    1
    22    14    30    1
    23    14    31    1
    24    15    20   ar
    25    15    16   ar
    26    16    17   ar
    27    16    32    1
    28    17    18   ar
    29    17    33    1
    30    18    19   ar
    31    18    34    1
    32    19    20   ar
    33    19    35    1
    34    20    36    1
    35    21    22    2
    36    23    25    1
    37    23    24    1
    38    23    37    1
    39    24    25    1
    40    24    38    1
    41    24    39    1
    42    25    40    1
    43    25    41    1
