@<TRIPOS>MOLECULE
ZINC000012850796
 49 51 0 0 0
SMALL
GASTEIGER

@<TRIPOS>ATOM
      1 C          -1.8008   -1.5704    5.4963 C.3     1  UNL1       -0.0171
      2 C          -1.6192   -0.0937    5.7360 C.ar    1  UNL1        0.1071
      3 N          -2.0534    0.5900    6.7550 N.ar    1  UNL1       -0.0813
      4 O          -1.7518    1.7579    6.6687 O.2     1  UNL1       -0.3576
      5 C          -1.0587    2.0062    5.5486 C.ar    1  UNL1        0.1607
      6 C          -0.5148    3.3384    5.1009 C.3     1  UNL1       -0.0017
      7 C          -0.9383    0.8223    4.9017 C.ar    1  UNL1        0.1696
      8 S          -0.1297    0.5004    3.3696 S.O2    1  UNL1        0.0666
      9 O          -0.8060   -0.6032    2.7831 O.2     1  UNL1       -0.1527
     10 O           0.0160    1.7564    2.7211 O.2     1  UNL1       -0.1527
     11 N           1.4008   -0.0235    3.7237 N.3     1  UNL1       -0.1646
     12 C           1.7883   -1.4180    4.0038 C.3     1  UNL1        0.0214
     13 C           3.2961   -1.4882    3.6556 C.3     1  UNL1       -0.0366
     14 C           3.7915   -0.0982    4.1350 C.3     1  UNL1       -0.0260
     15 C           2.5993    0.8242    3.8044 C.3     1  UNL1        0.1078
     16 H           2.4720    1.5632    4.5954 H       1  UNL1        0.0575
     17 C           2.8380    1.5184    2.4883 C.2     1  UNL1        0.2322
     18 O           2.4228    1.0277    1.4598 O.2     1  UNL1       -0.2740
     19 N           3.5127    2.6846    2.4542 N.am    1  UNL1       -0.3099
     20 C           3.7447    3.3595    1.1747 C.3     1  UNL1        0.0369
     21 C           4.5157    4.6326    1.4109 C.ar    1  UNL1       -0.0303
     22 C           3.8409    5.8143    1.6542 C.ar    1  UNL1       -0.0565
     23 C           4.5482    6.9821    1.8708 C.ar    1  UNL1       -0.0498
     24 C           5.9302    6.9681    1.8445 C.ar    1  UNL1        0.0548
     25 C           6.7012    8.2413    2.0802 C.3     1  UNL1        0.4174
     26 F           6.9618    8.3824    3.4474 F       1  UNL1       -0.1659
     27 F           7.9100    8.1913    1.3778 F       1  UNL1       -0.1659
     28 F           5.9475    9.3323    1.6342 F       1  UNL1       -0.1659
     29 C           6.6050    5.7862    1.6026 C.ar    1  UNL1       -0.0498
     30 C           5.8978    4.6176    1.3898 C.ar    1  UNL1       -0.0565
     31 H          -0.9261   -2.1081    5.8621 H       1  UNL1        0.0294
     32 H          -2.6883   -1.9179    6.0250 H       1  UNL1        0.0294
     33 H          -1.9192   -1.7533    4.4282 H       1  UNL1        0.0294
     34 H          -0.7703    4.1010    5.8366 H       1  UNL1        0.0309
     35 H           0.5691    3.2747    5.0051 H       1  UNL1        0.0309
     36 H          -0.9498    3.6031    4.1372 H       1  UNL1        0.0309
     37 H           1.6309   -1.6512    5.0569 H       1  UNL1        0.0444
     38 H           1.2212   -2.1032    3.3737 H       1  UNL1        0.0444
     39 H           3.7876   -2.2897    4.2072 H       1  UNL1        0.0279
     40 H           3.4441   -1.6069    2.5823 H       1  UNL1        0.0279
     41 H           3.9905   -0.1082    5.2066 H       1  UNL1        0.0286
     42 H           4.6783    0.2077    3.5798 H       1  UNL1        0.0286
     43 H           3.8448    3.0771    3.2767 H       1  UNL1        0.1491
     44 H           4.3167    2.7049    0.5171 H       1  UNL1        0.0512
     45 H           2.7875    3.5953    0.7096 H       1  UNL1        0.0512
     46 H           2.7612    5.8252    1.6747 H       1  UNL1        0.0621
     47 H           4.0210    7.9054    2.0602 H       1  UNL1        0.0623
     48 H           7.6848    5.7752    1.5824 H       1  UNL1        0.0623
     49 H           6.4250    3.6942    1.2007 H       1  UNL1        0.0621
@<TRIPOS>BOND
     1     1     2    1
     2     1    31    1
     3     1    32    1
     4     1    33    1
     5     2     7   ar
     6     2     3   ar
     7     3     4   ar
     8     4     5   ar
     9     5     6    1
    10     5     7   ar
    11     6    34    1
    12     6    35    1
    13     6    36    1
    14     7     8    1
    15     8     9    2
    16     8    10    2
    17     8    11    1
    18    11    15    1
    19    11    12    1
    20    12    13    1
    21    12    37    1
    22    12    38    1
    23    13    14    1
    24    13    39    1
    25    13    40    1
    26    14    15    1
    27    14    41    1
    28    14    42    1
    29    15    16    1
    30    15    17    1
    31    17    18    2
    32    17    19   am
    33    19    20    1
    34    19    43    1
    35    20    21    1
    36    20    44    1
    37    20    45    1
    38    21    30   ar
    39    21    22   ar
    40    22    23   ar
    41    22    46    1
    42    23    24   ar
    43    23    47    1
    44    24    25    1
    45    24    29   ar
    46    25    26    1
    47    25    27    1
    48    25    28    1
    49    29    30   ar
    50    29    48    1
    51    30    49    1
