@<TRIPOS>MOLECULE
ZINC000027953947
 43 44 0 0 0
SMALL
GASTEIGER

@<TRIPOS>ATOM
      1 C          -0.0178    1.4608    0.0101 C.3     1  UNL1        0.0097
      2 N           0.0021   -0.0041    0.0020 N.3     1  UNL1       -0.1725
      3 C           0.0241   -0.7433    1.2666 C.3     1  UNL1        0.0097
      4 S          -0.0004   -0.8243   -1.4366 S.O2    1  UNL1        0.0991
      5 O          -0.5247   -2.1160   -1.1611 O.2     1  UNL1       -0.1409
      6 O          -0.5660    0.0551   -2.3989 O.2     1  UNL1       -0.1409
      7 N           1.5805   -1.0455   -1.8774 N.3     1  UNL1       -0.1639
      8 C           2.2754   -0.0437   -2.6979 C.3     1  UNL1        0.0360
      9 C           3.5494    0.3926   -1.9639 C.3     1  UNL1        0.0350
     10 N           4.2827   -0.8089   -1.5412 N.3     1  UNL1       -0.1740
     11 S           5.8638   -1.0296   -1.9811 S.O2    1  UNL1        0.0609
     12 O           6.1042   -2.4290   -1.9255 O.2     1  UNL1       -0.1528
     13 O           6.0665   -0.2522   -3.1532 O.2     1  UNL1       -0.1528
     14 C           6.8614   -0.3031   -0.7235 C.ar    1  UNL1        0.1055
     15 C           7.2300    1.0261   -0.8153 C.ar    1  UNL1       -0.0348
     16 C           8.0126    1.5960    0.1714 C.ar    1  UNL1       -0.0483
     17 C           8.4263    0.8370    1.2501 C.ar    1  UNL1        0.0549
     18 C           9.2799    1.4583    2.3255 C.3     1  UNL1        0.4174
     19 F           8.4573    1.9985    3.3198 F       1  UNL1       -0.1659
     20 F          10.1086    0.4804    2.8861 F       1  UNL1       -0.1659
     21 F          10.0662    2.4726    1.7688 F       1  UNL1       -0.1659
     22 C           8.0566   -0.4918    1.3426 C.ar    1  UNL1       -0.0483
     23 C           7.2708   -1.0607    0.3579 C.ar    1  UNL1       -0.0348
     24 C           3.5877   -1.8107   -0.7207 C.3     1  UNL1        0.0350
     25 C           2.3154   -2.2443   -1.4501 C.3     1  UNL1        0.0360
     26 H           1.0048    1.8381    0.0023 H       1  UNL1        0.0408
     27 H          -0.5450    1.8219   -0.8730 H       1  UNL1        0.0408
     28 H          -0.5280    1.8123    0.9069 H       1  UNL1        0.0408
     29 H          -0.9979   -0.9406    1.5900 H       1  UNL1        0.0408
     30 H           0.5496   -1.6879    1.1262 H       1  UNL1        0.0408
     31 H           0.5371   -0.1514    2.0246 H       1  UNL1        0.0408
     32 H           2.5394   -0.4793   -3.6615 H       1  UNL1        0.0457
     33 H           1.6267    0.8191   -2.8491 H       1  UNL1        0.0457
     34 H           4.1729    0.9849   -2.6336 H       1  UNL1        0.0457
     35 H           3.2827    0.9851   -1.0887 H       1  UNL1        0.0457
     36 H           6.9068    1.6191   -1.6581 H       1  UNL1        0.0637
     37 H           8.3011    2.6343    0.0993 H       1  UNL1        0.0624
     38 H           8.3795   -1.0847    2.1856 H       1  UNL1        0.0624
     39 H           6.9819   -2.0989    0.4302 H       1  UNL1        0.0637
     40 H           4.2364   -2.6735   -0.5695 H       1  UNL1        0.0457
     41 H           3.3237   -1.3751    0.2429 H       1  UNL1        0.0457
     42 H           1.6930   -2.8365   -0.7792 H       1  UNL1        0.0457
     43 H           2.5797   -2.8366   -2.3261 H       1  UNL1        0.0457
@<TRIPOS>BOND
     1     1     2    1
     2     1    26    1
     3     1    27    1
     4     1    28    1
     5     2     3    1
     6     4     2    1
     7     3    29    1
     8     3    30    1
     9     3    31    1
    10     4     5    2
    11     4     6    2
    12     4     7    1
    13     7    25    1
    14     7     8    1
    15     8     9    1
    16     8    32    1
    17     8    33    1
    18     9    10    1
    19     9    34    1
    20     9    35    1
    21    11    10    1
    22    10    24    1
    23    11    12    2
    24    11    13    2
    25    11    14    1
    26    14    23   ar
    27    14    15   ar
    28    15    16   ar
    29    15    36    1
    30    16    17   ar
    31    16    37    1
    32    17    18    1
    33    17    22   ar
    34    18    19    1
    35    18    20    1
    36    18    21    1
    37    22    23   ar
    38    22    38    1
    39    23    39    1
    40    24    25    1
    41    24    40    1
    42    24    41    1
    43    25    42    1
    44    25    43    1
