@<TRIPOS>MOLECULE
ZINC000015386087
 47 49 0 0 0
SMALL
GASTEIGER

@<TRIPOS>ATOM
      1 C          -0.0187    1.5258    0.0104 C.3     1  UNL1       -0.0617
      2 C           0.0021   -0.0041    0.0020 C.3     1  UNL1       -0.0321
      3 H           0.0748   -0.4678   -0.9817 H       1  UNL1        0.0306
      4 C          -0.8275   -0.7277    1.0646 C.3     1  UNL1       -0.0384
      5 C           0.6996   -0.7075    1.1680 C.3     1  UNL1        0.0386
      6 H           1.2309   -1.6343    0.9515 H       1  UNL1        0.0397
      7 C           1.3132    0.1589    2.2375 C.2     1  UNL1        0.2190
      8 O           1.2430    1.3668    2.1537 O.2     1  UNL1       -0.2753
      9 N           1.9400   -0.4085    3.2871 N.am    1  UNL1       -0.2987
     10 C           2.0381   -1.8706    3.3986 C.3     1  UNL1        0.0291
     11 C           3.5161   -2.2529    3.5452 C.3     1  UNL1        0.0363
     12 N           4.1142   -1.4205    4.5984 N.3     1  UNL1       -0.1736
     13 S           4.8854   -2.1176    5.8875 S.O2    1  UNL1        0.0610
     14 O           4.8493   -1.1639    6.9403 O.2     1  UNL1       -0.1528
     15 O           4.3558   -3.4306    6.0097 O.2     1  UNL1       -0.1528
     16 C           6.5801   -2.3041    5.4429 C.ar    1  UNL1        0.1065
     17 C           7.0074   -3.4606    4.8177 C.ar    1  UNL1       -0.0237
     18 C           8.3370   -3.6069    4.4688 C.ar    1  UNL1        0.0572
     19 C           8.8030   -4.8678    3.7877 C.3     1  UNL1        0.4175
     20 F           8.6984   -4.7147    2.4010 F       1  UNL1       -0.1659
     21 F          10.1363   -5.1175    4.1301 F       1  UNL1       -0.1659
     22 F           8.0068   -5.9419    4.1996 F       1  UNL1       -0.1659
     23 C           9.2391   -2.5964    4.7444 C.ar    1  UNL1       -0.0384
     24 C           8.8117   -1.4397    5.3692 C.ar    1  UNL1        0.0572
     25 C           9.7952   -0.3382    5.6701 C.3     1  UNL1        0.4175
     26 F          11.0675   -0.7152    5.2268 F       1  UNL1       -0.1659
     27 F           9.4002    0.8320    5.0130 F       1  UNL1       -0.1659
     28 F           9.8310   -0.1090    7.0497 F       1  UNL1       -0.1659
     29 C           7.4813   -1.2916    5.7142 C.ar    1  UNL1       -0.0237
     30 C           4.0162    0.0416    4.4869 C.3     1  UNL1        0.0363
     31 C           2.5430    0.4240    4.3374 C.3     1  UNL1        0.0291
     32 H           1.0039    1.9031    0.0027 H       1  UNL1        0.0233
     33 H          -0.5459    1.8868   -0.8726 H       1  UNL1        0.0233
     34 H          -0.5289    1.8773    0.9072 H       1  UNL1        0.0233
     35 H          -1.3881   -0.1139    1.7696 H       1  UNL1        0.0275
     36 H          -1.3003   -1.6677    0.7800 H       1  UNL1        0.0275
     37 H           1.4842   -2.2087    4.2744 H       1  UNL1        0.0478
     38 H           1.6275   -2.3342    2.5016 H       1  UNL1        0.0478
     39 H           3.5965   -3.3045    3.8202 H       1  UNL1        0.0459
     40 H           4.0344   -2.0782    2.6023 H       1  UNL1        0.0459
     41 H           6.3026   -4.2499    4.6020 H       1  UNL1        0.0642
     42 H          10.2779   -2.7107    4.4719 H       1  UNL1        0.0629
     43 H           7.1474   -0.3880    6.2023 H       1  UNL1        0.0642
     44 H           4.4267    0.5053    5.3839 H       1  UNL1        0.0459
     45 H           4.5701    0.3797    3.6111 H       1  UNL1        0.0459
     46 H           2.4641    1.4758    4.0625 H       1  UNL1        0.0478
     47 H           2.0224    0.2495    5.2791 H       1  UNL1        0.0478
@<TRIPOS>BOND
     1     1     2    1
     2     1    32    1
     3     1    33    1
     4     1    34    1
     5     2     3    1
     6     2     5    1
     7     2     4    1
     8     4     5    1
     9     4    35    1
    10     4    36    1
    11     5     6    1
    12     5     7    1
    13     7     8    2
    14     7     9   am
    15     9    31    1
    16     9    10    1
    17    10    11    1
    18    10    37    1
    19    10    38    1
    20    11    12    1
    21    11    39    1
    22    11    40    1
    23    13    12    1
    24    12    30    1
    25    13    14    2
    26    13    15    2
    27    13    16    1
    28    16    29   ar
    29    16    17   ar
    30    17    18   ar
    31    17    41    1
    32    18    19    1
    33    18    23   ar
    34    19    20    1
    35    19    21    1
    36    19    22    1
    37    23    24   ar
    38    23    42    1
    39    24    25    1
    40    24    29   ar
    41    25    26    1
    42    25    27    1
    43    25    28    1
    44    29    43    1
    45    30    31    1
    46    30    44    1
    47    30    45    1
    48    31    46    1
    49    31    47    1
