@<TRIPOS>MOLECULE
ZINC000072395560
 47 50 0 0 0
SMALL
GASTEIGER

@<TRIPOS>ATOM
      1 C          -0.0187    1.5258    0.0104 C.3     1  UNL1       -0.0495
      2 C           0.0021   -0.0041    0.0020 C.3     1  UNL1        0.0646
      3 C          -1.4153   -0.6406    0.1098 C.3     1  UNL1        0.0347
      4 N          -1.3663   -1.6314    1.2027 N.3     1  UNL1       -0.1738
      5 S          -2.6487   -2.2296    2.0629 S.O2    1  UNL1        0.0609
      6 O          -2.1237   -2.6823    3.3034 O.2     1  UNL1       -0.1528
      7 O          -3.6846   -1.2619    1.9641 O.2     1  UNL1       -0.1528
      8 C          -3.2236   -3.6623    1.2135 C.ar    1  UNL1        0.1060
      9 C          -4.1925   -3.5434    0.2351 C.ar    1  UNL1       -0.0353
     10 C          -4.6436   -4.6675   -0.4314 C.ar    1  UNL1       -0.0594
     11 C          -4.1253   -5.9103   -0.1196 C.ar    1  UNL1       -0.0500
     12 C          -3.1555   -6.0292    0.8585 C.ar    1  UNL1        0.0567
     13 C          -2.5907   -7.3843    1.1989 C.3     1  UNL1        0.4175
     14 F          -3.1990   -8.3574    0.3987 F       1  UNL1       -0.1659
     15 F          -1.2110   -7.3860    0.9674 F       1  UNL1       -0.1659
     16 F          -2.8379   -7.6675    2.5464 F       1  UNL1       -0.1659
     17 C          -2.7014   -4.9048    1.5218 C.ar    1  UNL1       -0.0237
     18 C           0.0700   -1.9843    1.3747 C.3     1  UNL1        0.0399
     19 C           0.7327   -0.6077    1.2229 C.3     1  UNL1        0.0514
     20 H           0.5126   -0.0057    2.1045 H       1  UNL1        0.0522
     21 N           2.1659   -0.6399    1.0132 N.am    1  UNL1       -0.3062
     22 C           2.7546   -1.5891    0.2450 C.2     1  UNL1        0.2450
     23 O           3.9665   -1.6606    0.1897 O.2     1  UNL1       -0.2702
     24 C           1.9235   -2.5360   -0.5240 C.ar    1  UNL1        0.0472
     25 C           2.1690   -3.9007   -0.5009 C.ar    1  UNL1       -0.0490
     26 C           1.3866   -4.7538   -1.2608 C.ar    1  UNL1       -0.0610
     27 C           0.3626   -4.2549   -2.0460 C.ar    1  UNL1       -0.0611
     28 C           0.0949   -2.8981   -2.0736 C.ar    1  UNL1       -0.0505
     29 C           0.8597   -2.0268   -1.3042 C.ar    1  UNL1        0.0301
     30 C           0.6033   -0.5831   -1.2658 C.2     1  UNL1        0.1728
     31 O           0.8399    0.1124   -2.2302 O.2     1  UNL1       -0.2913
     32 H           1.0039    1.9031    0.0027 H       1  UNL1        0.0240
     33 H          -0.5459    1.8868   -0.8726 H       1  UNL1        0.0240
     34 H          -0.5289    1.8773    0.9072 H       1  UNL1        0.0240
     35 H          -2.1513    0.1297    0.3401 H       1  UNL1        0.0454
     36 H          -1.6724   -1.1344   -0.8273 H       1  UNL1        0.0454
     37 H          -4.5975   -2.5723   -0.0086 H       1  UNL1        0.0637
     38 H          -5.4012   -4.5746   -1.1955 H       1  UNL1        0.0618
     39 H          -4.4782   -6.7886   -0.6397 H       1  UNL1        0.0623
     40 H          -1.9438   -4.9977    2.2859 H       1  UNL1        0.0642
     41 H           0.2556   -2.4021    2.3641 H       1  UNL1        0.0462
     42 H           0.4022   -2.6679    0.5934 H       1  UNL1        0.0462
     43 H           2.7194    0.0365    1.4339 H       1  UNL1        0.1494
     44 H           2.9683   -4.2970    0.1077 H       1  UNL1        0.0625
     45 H           1.5769   -5.8167   -1.2401 H       1  UNL1        0.0618
     46 H          -0.2324   -4.9303   -2.6427 H       1  UNL1        0.0618
     47 H          -0.7050   -2.5162   -2.6906 H       1  UNL1        0.0625
@<TRIPOS>BOND
     1     1    32    1
     2     1    33    1
     3     1    34    1
     4     2     1    1
     5     2    19    1
     6     2    30    1
     7     2     3    1
     8     3     4    1
     9     3    35    1
    10     3    36    1
    11     5     4    1
    12     4    18    1
    13     5     6    2
    14     5     7    2
    15     5     8    1
    16     8    17   ar
    17     8     9   ar
    18     9    10   ar
    19     9    37    1
    20    10    11   ar
    21    10    38    1
    22    11    12   ar
    23    11    39    1
    24    12    13    1
    25    12    17   ar
    26    13    14    1
    27    13    15    1
    28    13    16    1
    29    17    40    1
    30    18    19    1
    31    18    41    1
    32    18    42    1
    33    19    20    1
    34    19    21    1
    35    21    22   am
    36    21    43    1
    37    22    23    2
    38    22    24    1
    39    24    29   ar
    40    24    25   ar
    41    25    26   ar
    42    25    44    1
    43    26    27   ar
    44    26    45    1
    45    27    28   ar
    46    27    46    1
    47    28    29   ar
    48    28    47    1
    49    29    30    1
    50    30    31    2
