@<TRIPOS>MOLECULE
ZINC000035314564
 45 47 0 0 0
SMALL
GASTEIGER

@<TRIPOS>ATOM
      1 O           0.0021   -0.0041    0.0020 O.2     1  UNL1       -0.2918
      2 C          -0.0144    1.2085    0.0087 C.2     1  UNL1        0.1663
      3 C           1.2487    1.9609    0.0007 C.ar    1  UNL1        0.0178
      4 C           1.2333    3.3601    0.0141 C.ar    1  UNL1       -0.0485
      5 C           2.4203    4.0590    0.0065 C.ar    1  UNL1       -0.0258
      6 C           3.6291    3.3788   -0.0150 C.ar    1  UNL1        0.1234
      7 F           4.7897    4.0701   -0.0229 F       1  UNL1       -0.2055
      8 C           3.6514    1.9918   -0.0280 C.ar    1  UNL1       -0.0258
      9 C           2.4716    1.2808   -0.0147 C.ar    1  UNL1       -0.0485
     10 C          -1.3296    1.9442    0.0189 C.3     1  UNL1        0.0245
     11 C          -1.7805    2.2025   -1.4205 C.3     1  UNL1       -0.0286
     12 C          -3.1000    2.9806   -1.4062 C.3     1  UNL1        0.0212
     13 N          -4.0752    2.2430   -0.5915 N.3     1  UNL1       -0.1765
     14 S          -5.5603    1.8457   -1.2071 S.O2    1  UNL1        0.0609
     15 O          -6.4227    1.6686   -0.0917 O.2     1  UNL1       -0.1528
     16 O          -5.8220    2.7717   -2.2527 O.2     1  UNL1       -0.1528
     17 C          -5.4027    0.2653   -1.9701 C.ar    1  UNL1        0.1055
     18 C          -5.0477    0.1736   -3.3030 C.ar    1  UNL1       -0.0348
     19 C          -4.9241   -1.0663   -3.9016 C.ar    1  UNL1       -0.0483
     20 C          -5.1551   -2.2145   -3.1672 C.ar    1  UNL1        0.0549
     21 C          -5.0209   -3.5661   -3.8199 C.3     1  UNL1        0.4174
     22 F          -3.7057   -4.0226   -3.6810 F       1  UNL1       -0.1659
     23 F          -5.8953   -4.4694   -3.2060 F       1  UNL1       -0.1659
     24 F          -5.3370   -3.4613   -5.1787 F       1  UNL1       -0.1659
     25 C          -5.5088   -2.1228   -1.8340 C.ar    1  UNL1       -0.0483
     26 C          -5.6286   -0.8830   -1.2344 C.ar    1  UNL1       -0.0348
     27 C          -3.7075    1.8642    0.7796 C.3     1  UNL1        0.0212
     28 C          -2.3812    1.0986    0.7408 C.3     1  UNL1       -0.0286
     29 H           0.2928    3.8909    0.0301 H       1  UNL1        0.0625
     30 H           2.4098    5.1389    0.0168 H       1  UNL1        0.0646
     31 H           4.5958    1.4683   -0.0446 H       1  UNL1        0.0646
     32 H           2.4904    0.2010   -0.0244 H       1  UNL1        0.0625
     33 H          -1.2096    2.8952    0.5378 H       1  UNL1        0.0382
     34 H          -1.0203    2.7849   -1.9410 H       1  UNL1        0.0285
     35 H          -1.9247    1.2512   -1.9328 H       1  UNL1        0.0285
     36 H          -2.9370    3.9685   -0.9756 H       1  UNL1        0.0444
     37 H          -3.4761    3.0810   -2.4244 H       1  UNL1        0.0444
     38 H          -4.8673    1.0706   -3.8767 H       1  UNL1        0.0637
     39 H          -4.6475   -1.1380   -4.9431 H       1  UNL1        0.0624
     40 H          -5.6889   -3.0198   -1.2602 H       1  UNL1        0.0624
     41 H          -5.9049   -0.8114   -0.1928 H       1  UNL1        0.0637
     42 H          -3.5940    2.7611    1.3885 H       1  UNL1        0.0444
     43 H          -4.4843    1.2280    1.2038 H       1  UNL1        0.0444
     44 H          -2.5197    0.1577    0.2082 H       1  UNL1        0.0285
     45 H          -2.0485    0.8954    1.7587 H       1  UNL1        0.0285
@<TRIPOS>BOND
     1     1     2    2
     2     2     3    1
     3     2    10    1
     4     3     9   ar
     5     3     4   ar
     6     4     5   ar
     7     4    29    1
     8     5     6   ar
     9     5    30    1
    10     6     7    1
    11     6     8   ar
    12     8     9   ar
    13     8    31    1
    14     9    32    1
    15    10    28    1
    16    10    11    1
    17    10    33    1
    18    11    12    1
    19    11    34    1
    20    11    35    1
    21    12    13    1
    22    12    36    1
    23    12    37    1
    24    14    13    1
    25    13    27    1
    26    14    15    2
    27    14    16    2
    28    14    17    1
    29    17    26   ar
    30    17    18   ar
    31    18    19   ar
    32    18    38    1
    33    19    20   ar
    34    19    39    1
    35    20    21    1
    36    20    25   ar
    37    21    22    1
    38    21    23    1
    39    21    24    1
    40    25    26   ar
    41    25    40    1
    42    26    41    1
    43    27    28    1
    44    27    42    1
    45    27    43    1
    46    28    44    1
    47    28    45    1
