@<TRIPOS>MOLECULE
ZINC000022228229
 56 56 0 0 0
SMALL
GASTEIGER

@<TRIPOS>ATOM
      1 C          -0.0187    1.5258    0.0104 C.3     1  UNL1       -0.0507
      2 C           0.0021   -0.0041    0.0020 C.3     1  UNL1        0.0177
      3 N          -1.3723   -0.5112    0.0124 N.3     1  UNL1       -0.1771
      4 C          -2.1099   -0.6542   -1.2453 C.3     1  UNL1        0.0177
      5 C          -1.7727   -2.0031   -1.8836 C.3     1  UNL1       -0.0507
      6 S          -2.0922   -0.9227    1.4458 S.O2    1  UNL1        0.0608
      7 O          -3.1196   -1.8512    1.1269 O.2     1  UNL1       -0.1528
      8 O          -1.0393   -1.2108    2.3555 O.2     1  UNL1       -0.1528
      9 C          -2.8978    0.5199    2.0580 C.ar    1  UNL1        0.1055
     10 C          -2.2156    1.3954    2.8820 C.ar    1  UNL1       -0.0351
     11 C          -2.8476    2.5271    3.3622 C.ar    1  UNL1       -0.0567
     12 C          -4.1616    2.7836    3.0181 C.ar    1  UNL1       -0.0458
     13 C          -4.8508    4.0171    3.5421 C.3     1  UNL1       -0.0120
     14 C          -4.6371    5.1747    2.5647 C.3     1  UNL1        0.0160
     15 N          -5.3071    6.3739    3.0740 N.am    1  UNL1       -0.3073
     16 C          -5.2536    7.5243    2.3740 C.2     1  UNL1        0.2990
     17 O          -4.6506    7.5669    1.3218 O.2     1  UNL1       -0.2652
     18 C          -5.9371    8.7476    2.8936 C.2     1  UNL1        0.2990
     19 O          -6.5401    8.7051    3.9458 O.2     1  UNL1       -0.2652
     20 N          -5.8836    9.8981    2.1936 N.am    1  UNL1       -0.3075
     21 C          -6.5536   11.0973    2.7029 C.3     1  UNL1        0.0141
     22 C          -6.3399   12.2548    1.7255 C.3     1  UNL1       -0.0138
     23 C          -7.0396   13.5072    2.2575 C.3     1  UNL1        0.0487
     24 O          -6.8400   14.5884    1.3446 O.3     1  UNL1       -0.3829
     25 C          -7.4565   15.8123    1.7496 C.3     1  UNL1        0.0364
     26 C          -4.8434    1.9088    2.1930 C.ar    1  UNL1       -0.0567
     27 C          -4.2102    0.7790    1.7096 C.ar    1  UNL1       -0.0351
     28 H           1.0039    1.9031    0.0027 H       1  UNL1        0.0243
     29 H          -0.5459    1.8868   -0.8726 H       1  UNL1        0.0243
     30 H          -0.5289    1.8773    0.9072 H       1  UNL1        0.0243
     31 H           0.5123   -0.3556   -0.8948 H       1  UNL1        0.0441
     32 H           0.5293   -0.3651    0.8851 H       1  UNL1        0.0441
     33 H          -3.1804   -0.6037   -1.0465 H       1  UNL1        0.0441
     34 H          -1.8283    0.1500   -1.9251 H       1  UNL1        0.0441
     35 H          -0.7022   -2.0536   -2.0825 H       1  UNL1        0.0243
     36 H          -2.0544   -2.8073   -1.2038 H       1  UNL1        0.0243
     37 H          -2.3215   -2.1096   -2.8194 H       1  UNL1        0.0243
     38 H          -1.1890    1.1950    3.1509 H       1  UNL1        0.0637
     39 H          -2.3149    3.2108    4.0066 H       1  UNL1        0.0621
     40 H          -5.9180    3.8210    3.6452 H       1  UNL1        0.0328
     41 H          -4.4342    4.2808    4.5142 H       1  UNL1        0.0328
     42 H          -3.5699    5.3709    2.4615 H       1  UNL1        0.0465
     43 H          -5.0537    4.9110    1.5925 H       1  UNL1        0.0465
     44 H          -5.7891    6.3398    3.9151 H       1  UNL1        0.1492
     45 H          -5.4016    9.9321    1.3525 H       1  UNL1        0.1491
     46 H          -7.6208   10.9011    2.8061 H       1  UNL1        0.0463
     47 H          -6.1370   11.3610    3.6750 H       1  UNL1        0.0463
     48 H          -5.2727   12.4510    1.6224 H       1  UNL1        0.0302
     49 H          -6.7565   11.9911    0.7534 H       1  UNL1        0.0302
     50 H          -8.1068   13.3110    2.3606 H       1  UNL1        0.0560
     51 H          -6.6230   13.7709    3.2296 H       1  UNL1        0.0560
     52 H          -7.0486   16.1238    2.7112 H       1  UNL1        0.0523
     53 H          -7.2588   16.5827    1.0043 H       1  UNL1        0.0523
     54 H          -8.5324   15.6639    1.8422 H       1  UNL1        0.0523
     55 H          -5.8699    2.1094    1.9238 H       1  UNL1        0.0621
     56 H          -4.7428    0.0956    1.0650 H       1  UNL1        0.0637
@<TRIPOS>BOND
     1     1     2    1
     2     1    28    1
     3     1    29    1
     4     1    30    1
     5     2     3    1
     6     2    31    1
     7     2    32    1
     8     3     4    1
     9     6     3    1
    10     4     5    1
    11     4    33    1
    12     4    34    1
    13     5    35    1
    14     5    36    1
    15     5    37    1
    16     6     7    2
    17     6     8    2
    18     6     9    1
    19     9    27   ar
    20     9    10   ar
    21    10    11   ar
    22    10    38    1
    23    11    12   ar
    24    11    39    1
    25    12    13    1
    26    12    26   ar
    27    13    14    1
    28    13    40    1
    29    13    41    1
    30    14    15    1
    31    14    42    1
    32    14    43    1
    33    15    16   am
    34    15    44    1
    35    16    17    2
    36    16    18    1
    37    18    19    2
    38    18    20   am
    39    20    21    1
    40    20    45    1
    41    21    22    1
    42    21    46    1
    43    21    47    1
    44    22    23    1
    45    22    48    1
    46    22    49    1
    47    23    24    1
    48    23    50    1
    49    23    51    1
    50    24    25    1
    51    25    52    1
    52    25    53    1
    53    25    54    1
    54    26    27   ar
    55    26    55    1
    56    27    56    1
