@<TRIPOS>MOLECULE
ZINC000253430669
 35 36 0 0 0
SMALL
GASTEIGER

@<TRIPOS>ATOM
      1 O           0.0021   -0.0041    0.0020 O.2     1  UNL1       -0.1527
      2 S          -0.0172    1.4168    0.0098 S.O2    1  UNL1        0.0646
      3 O           1.1617    2.2101    0.0028 O.2     1  UNL1       -0.1527
      4 C          -0.9567    1.9094   -1.3970 C.ar    1  UNL1        0.1472
      5 C          -0.4624    2.8715   -2.2559 C.ar    1  UNL1       -0.0201
      6 C          -1.1995    3.2589   -3.3600 C.ar    1  UNL1        0.0569
      7 C          -0.6578    4.3089   -4.2954 C.3     1  UNL1        0.4175
      8 F           0.0919    3.6933   -5.3035 F       1  UNL1       -0.1659
      9 F          -1.7204    5.0149   -4.8696 F       1  UNL1       -0.1659
     10 F           0.1580    5.1932   -3.5816 F       1  UNL1       -0.1659
     11 C          -2.4324    2.6843   -3.6072 C.ar    1  UNL1       -0.0466
     12 C          -2.9310    1.7211   -2.7513 C.ar    1  UNL1       -0.0177
     13 C          -2.1913    1.3270   -1.6461 C.ar    1  UNL1        0.1431
     14 O          -2.6796    0.3798   -0.8028 O.3     1  UNL1       -0.5048
     15 N          -0.8748    1.8654    1.3536 N.3     1  UNL1       -0.1712
     16 C          -0.7685    3.1619    2.0474 C.3     1  UNL1        0.0209
     17 C          -2.1234    3.3324    2.7789 C.3     1  UNL1       -0.0370
     18 C          -2.4234    1.8761    3.2223 C.3     1  UNL1       -0.0324
     19 C          -1.8728    1.0392    2.0485 C.3     1  UNL1        0.0550
     20 H          -2.6829    0.7771    1.3680 H       1  UNL1        0.0502
     21 C          -1.2097   -0.2323    2.5819 C.3     1  UNL1        0.0614
     22 O          -0.2352    0.1162    3.5673 O.3     1  UNL1       -0.3934
     23 H           0.5004    3.3219   -2.0649 H       1  UNL1        0.0644
     24 H          -3.0063    2.9888   -4.4699 H       1  UNL1        0.0624
     25 H          -3.8944    1.2728   -2.9447 H       1  UNL1        0.0655
     26 H          -2.4341   -0.5243   -1.0423 H       1  UNL1        0.2922
     27 H           0.0507    3.1415    2.7661 H       1  UNL1        0.0444
     28 H          -0.6224    3.9668    1.3271 H       1  UNL1        0.0444
     29 H          -2.0213    3.9904    3.6418 H       1  UNL1        0.0279
     30 H          -2.8914    3.6996    2.0981 H       1  UNL1        0.0279
     31 H          -1.8997    1.6393    4.1485 H       1  UNL1        0.0282
     32 H          -3.4964    1.7203    3.3340 H       1  UNL1        0.0282
     33 H          -1.9664   -0.8757    3.0308 H       1  UNL1        0.0573
     34 H          -0.7240   -0.7604    1.7614 H       1  UNL1        0.0573
     35 H           0.2261   -0.6428    3.9498 H       1  UNL1        0.2095
@<TRIPOS>BOND
     1     1     2    2
     2     2     3    2
     3     2     4    1
     4     2    15    1
     5     4    13   ar
     6     4     5   ar
     7     5     6   ar
     8     5    23    1
     9     6     7    1
    10     6    11   ar
    11     7     8    1
    12     7     9    1
    13     7    10    1
    14    11    12   ar
    15    11    24    1
    16    12    13   ar
    17    12    25    1
    18    13    14    1
    19    14    26    1
    20    15    19    1
    21    15    16    1
    22    16    17    1
    23    16    27    1
    24    16    28    1
    25    17    18    1
    26    17    29    1
    27    17    30    1
    28    18    19    1
    29    18    31    1
    30    18    32    1
    31    19    20    1
    32    19    21    1
    33    21    22    1
    34    21    33    1
    35    21    34    1
    36    22    35    1
