@<TRIPOS>MOLECULE
ZINC000009314805
 49 50 0 0 0
SMALL
GASTEIGER

@<TRIPOS>ATOM
      1 C          -0.0187    1.5258    0.0104 C.3     1  UNL1       -0.0507
      2 C           0.0021   -0.0041    0.0020 C.3     1  UNL1        0.0177
      3 N           0.6878   -0.4765   -1.2033 N.3     1  UNL1       -0.1771
      4 C           2.1478   -0.5966   -1.2159 C.3     1  UNL1        0.0177
      5 C           2.5532   -1.9514   -0.6319 C.3     1  UNL1       -0.0507
      6 S          -0.1875   -0.8749   -2.5515 S.O2    1  UNL1        0.0609
      7 O           0.6166   -1.7761   -3.3001 O.2     1  UNL1       -0.1528
      8 O          -1.4970   -1.1925   -2.1004 O.2     1  UNL1       -0.1528
      9 C          -0.3375    0.5853   -3.5262 C.ar    1  UNL1        0.1074
     10 C          -1.4062    1.4393   -3.3286 C.ar    1  UNL1       -0.0318
     11 C          -1.5290    2.5873   -4.0904 C.ar    1  UNL1       -0.0163
     12 C          -0.5801    2.8839   -5.0541 C.ar    1  UNL1        0.1409
     13 O          -0.6995    4.0126   -5.8036 O.3     1  UNL1       -0.4933
     14 C          -1.8294    4.8478   -5.5433 C.3     1  UNL1        0.0789
     15 C           0.4977    2.0235   -5.2540 C.ar    1  UNL1        0.0716
     16 N           1.4602    2.3185   -6.2264 N.pl3   1  UNL1       -0.3325
     17 C           2.5924    1.4126   -6.4349 C.3     1  UNL1        0.0859
     18 C           3.4749    1.9551   -7.5295 C.2     1  UNL1        0.2303
     19 O           3.1864    2.9959   -8.0811 O.2     1  UNL1       -0.2741
     20 N           4.5846    1.2835   -7.8954 N.am    1  UNL1       -0.3112
     21 C           5.4425    1.8109   -8.9595 C.3     1  UNL1        0.0233
     22 C           6.9550    1.7705   -8.7327 C.3     1  UNL1       -0.0328
     23 C           6.3054    0.8111   -9.7319 C.3     1  UNL1       -0.0328
     24 C           0.6171    0.8770   -4.4829 C.ar    1  UNL1       -0.0109
     25 H           1.0039    1.9031    0.0027 H       1  UNL1        0.0243
     26 H          -0.5459    1.8868   -0.8726 H       1  UNL1        0.0243
     27 H          -0.5289    1.8773    0.9072 H       1  UNL1        0.0243
     28 H           0.5293   -0.3651    0.8851 H       1  UNL1        0.0441
     29 H          -1.0205   -0.3814    0.0098 H       1  UNL1        0.0441
     30 H           2.5098   -0.5199   -2.2412 H       1  UNL1        0.0441
     31 H           2.5833    0.2026   -0.6162 H       1  UNL1        0.0441
     32 H           2.1177   -2.7506   -1.2316 H       1  UNL1        0.0243
     33 H           3.6395   -2.0407   -0.6413 H       1  UNL1        0.0243
     34 H           2.1912   -2.0280    0.3934 H       1  UNL1        0.0243
     35 H          -2.1475    1.2094   -2.5776 H       1  UNL1        0.0638
     36 H          -2.3655    3.2522   -3.9337 H       1  UNL1        0.0655
     37 H          -1.8039    5.7112   -6.2081 H       1  UNL1        0.0660
     38 H          -2.7458    4.2834   -5.7159 H       1  UNL1        0.0660
     39 H          -1.8005    5.1857   -4.5075 H       1  UNL1        0.0660
     40 H           1.3775    3.1228   -6.7623 H       1  UNL1        0.1467
     41 H           3.1669    1.3306   -5.5122 H       1  UNL1        0.0557
     42 H           2.2222    0.4281   -6.7211 H       1  UNL1        0.0557
     43 H           4.8154    0.4511   -7.4542 H       1  UNL1        0.1490
     44 H           5.0385    2.6593   -9.5119 H       1  UNL1        0.0498
     45 H           7.5465    2.5925   -9.1359 H       1  UNL1        0.0284
     46 H           7.3119    1.3516   -7.7918 H       1  UNL1        0.0284
     47 H           6.2349   -0.2390   -9.4484 H       1  UNL1        0.0284
     48 H           6.4695    1.0019  -10.7925 H       1  UNL1        0.0284
     49 H           1.4514    0.2082   -4.6349 H       1  UNL1        0.0657
@<TRIPOS>BOND
     1     1     2    1
     2     1    25    1
     3     1    26    1
     4     1    27    1
     5     2     3    1
     6     2    28    1
     7     2    29    1
     8     3     4    1
     9     6     3    1
    10     4     5    1
    11     4    30    1
    12     4    31    1
    13     5    32    1
    14     5    33    1
    15     5    34    1
    16     6     7    2
    17     6     8    2
    18     6     9    1
    19     9    24   ar
    20     9    10   ar
    21    10    11   ar
    22    10    35    1
    23    11    12   ar
    24    11    36    1
    25    12    13    1
    26    12    15   ar
    27    13    14    1
    28    14    37    1
    29    14    38    1
    30    14    39    1
    31    15    16    1
    32    15    24   ar
    33    16    17    1
    34    16    40    1
    35    17    18    1
    36    17    41    1
    37    17    42    1
    38    18    19    2
    39    18    20   am
    40    20    21    1
    41    20    43    1
    42    21    23    1
    43    21    22    1
    44    21    44    1
    45    22    23    1
    46    22    45    1
    47    22    46    1
    48    23    47    1
    49    23    48    1
    50    24    49    1
