@<TRIPOS>MOLECULE
ZINC000040059737
 45 48 0 0 0
SMALL
GASTEIGER

@<TRIPOS>ATOM
      1 O          -0.3104   -0.3925   -0.0407 O.2     1  UNL1       -0.1528
      2 S          -0.1237    1.0129   -0.1361 S.O2    1  UNL1        0.0618
      3 O           1.1535    1.6193   -0.2791 O.2     1  UNL1       -0.1528
      4 C          -1.0865    1.5507   -1.5102 C.ar    1  UNL1        0.1055
      5 C          -2.1688    0.8010   -1.9315 C.ar    1  UNL1       -0.0348
      6 C          -2.9242    1.2228   -3.0096 C.ar    1  UNL1       -0.0483
      7 C          -2.5976    2.3947   -3.6661 C.ar    1  UNL1        0.0549
      8 C          -3.4208    2.8544   -4.8417 C.3     1  UNL1        0.4174
      9 F          -4.4622    3.6724   -4.3905 F       1  UNL1       -0.1659
     10 F          -2.6104    3.5757   -5.7250 F       1  UNL1       -0.1659
     11 F          -3.9542    1.7417   -5.5011 F       1  UNL1       -0.1659
     12 C          -1.5162    3.1451   -3.2440 C.ar    1  UNL1       -0.0483
     13 C          -0.7631    2.7252   -2.1635 C.ar    1  UNL1       -0.0348
     14 N          -0.8027    1.6683    1.2247 N.3     1  UNL1       -0.1617
     15 C          -0.3790    2.9854    1.7230 C.3     1  UNL1        0.0395
     16 C          -1.5579    3.9607    1.6414 C.3     1  UNL1        0.0375
     17 N          -2.7589    3.3133    2.1807 N.ar    1  UNL1       -0.3475
     18 C          -3.8956    3.9264    2.6097 C.ar    1  UNL1        0.0049
     19 C          -4.7605    2.9749    3.0197 C.ar    1  UNL1       -0.0439
     20 C          -4.1318    1.7252    2.8394 C.ar    1  UNL1       -0.0390
     21 C          -2.9127    1.9618    2.3305 C.ar    1  UNL1        0.0421
     22 C          -1.8545    0.9510    1.9692 C.3     1  UNL1        0.0968
     23 H          -2.2851    0.1693    1.3435 H       1  UNL1        0.0594
     24 C          -1.2730    0.3456    3.2207 C.ar    1  UNL1       -0.0229
     25 C          -1.2625   -1.0270    3.3840 C.ar    1  UNL1       -0.0567
     26 C          -0.7291   -1.5824    4.5320 C.ar    1  UNL1       -0.0614
     27 C          -0.2057   -0.7652    5.5164 C.ar    1  UNL1       -0.0617
     28 C          -0.2153    0.6074    5.3527 C.ar    1  UNL1       -0.0614
     29 C          -0.7449    1.1625    4.2028 C.ar    1  UNL1       -0.0567
     30 H          -2.4239   -0.1146   -1.4186 H       1  UNL1        0.0637
     31 H          -3.7693    0.6367   -3.3392 H       1  UNL1        0.0624
     32 H          -1.2612    4.0609   -3.7566 H       1  UNL1        0.0624
     33 H           0.0818    3.3115   -1.8337 H       1  UNL1        0.0637
     34 H          -0.0528    2.8947    2.7591 H       1  UNL1        0.0462
     35 H           0.4441    3.3576    1.1131 H       1  UNL1        0.0462
     36 H          -1.3327    4.8537    2.2245 H       1  UNL1        0.0505
     37 H          -1.7297    4.2379    0.6013 H       1  UNL1        0.0505
     38 H          -4.0747    4.9914    2.6205 H       1  UNL1        0.0809
     39 H          -5.7524    3.1401    3.4138 H       1  UNL1        0.0633
     40 H          -4.5534    0.7575    3.0679 H       1  UNL1        0.0636
     41 H          -1.6715   -1.6655    2.6149 H       1  UNL1        0.0621
     42 H          -0.7216   -2.6548    4.6600 H       1  UNL1        0.0618
     43 H           0.2104   -1.1991    6.4137 H       1  UNL1        0.0618
     44 H           0.1933    1.2459    6.1219 H       1  UNL1        0.0618
     45 H          -0.7524    2.2349    4.0748 H       1  UNL1        0.0621
@<TRIPOS>BOND
     1     1     2    2
     2     2     3    2
     3     2     4    1
     4     2    14    1
     5     4    13   ar
     6     4     5   ar
     7     5     6   ar
     8     5    30    1
     9     6     7   ar
    10     6    31    1
    11     7     8    1
    12     7    12   ar
    13     8     9    1
    14     8    10    1
    15     8    11    1
    16    12    13   ar
    17    12    32    1
    18    13    33    1
    19    14    22    1
    20    14    15    1
    21    15    16    1
    22    15    34    1
    23    15    35    1
    24    16    17    1
    25    16    36    1
    26    16    37    1
    27    17    21   ar
    28    17    18   ar
    29    18    19   ar
    30    18    38    1
    31    19    20   ar
    32    19    39    1
    33    20    21   ar
    34    20    40    1
    35    21    22    1
    36    22    23    1
    37    22    24    1
    38    24    29   ar
    39    24    25   ar
    40    25    26   ar
    41    25    41    1
    42    26    27   ar
    43    26    42    1
    44    27    28   ar
    45    27    43    1
    46    28    29   ar
    47    28    44    1
    48    29    45    1
