@<TRIPOS>MOLECULE
ZINC000065225071
 49 52 0 0 0
SMALL
GASTEIGER

@<TRIPOS>ATOM
      1 O           1.0456    1.7908   -0.1255 O.2     1  UNL1       -0.2700
      2 C          -0.0144    1.2113    0.0087 C.2     1  UNL1        0.2468
      3 C          -0.0588   -0.2661   -0.0254 C.ar    1  UNL1        0.0369
      4 C          -1.1610   -0.9217   -0.5763 C.ar    1  UNL1       -0.0491
      5 C          -1.1961   -2.3005   -0.6050 C.ar    1  UNL1       -0.0494
      6 C          -0.1421   -3.0333   -0.0888 C.ar    1  UNL1        0.0549
      7 C          -0.1874   -4.5392   -0.1235 C.3     1  UNL1        0.4174
      8 F           0.3842   -4.9956   -1.3161 F       1  UNL1       -0.1659
      9 F           0.5287   -5.0525    0.9632 F       1  UNL1       -0.1659
     10 F          -1.5172   -4.9676   -0.0498 F       1  UNL1       -0.1659
     11 C           0.9534   -2.3896    0.4588 C.ar    1  UNL1       -0.0494
     12 C           1.0039   -1.0113    0.4881 C.ar    1  UNL1       -0.0491
     13 N          -1.1485    1.9155    0.1942 N.am    1  UNL1       -0.2925
     14 C          -1.1563    3.3834    0.0919 C.3     1  UNL1        0.0426
     15 C          -1.8229    3.9537    1.3468 C.3     1  UNL1        0.0891
     16 H          -1.9814    5.0243    1.2168 H       1  UNL1        0.0625
     17 C          -0.9184    3.7183    2.5597 C.3     1  UNL1        0.0483
     18 N          -0.8931    2.2760    2.8501 N.3     1  UNL1       -0.1716
     19 S           0.5397    1.4660    3.0324 S.O2    1  UNL1        0.0610
     20 O           0.2679    0.1006    2.7479 O.2     1  UNL1       -0.1528
     21 O           1.5205    2.2242    2.3379 O.2     1  UNL1       -0.1528
     22 C           0.9686    1.5427    4.7397 C.ar    1  UNL1        0.1055
     23 C           1.7321    2.5929    5.2141 C.ar    1  UNL1       -0.0353
     24 C           2.0685    2.6531    6.5535 C.ar    1  UNL1       -0.0599
     25 C           1.6411    1.6632    7.4187 C.ar    1  UNL1       -0.0616
     26 C           0.8769    0.6135    6.9445 C.ar    1  UNL1       -0.0599
     27 C           0.5368    0.5556    5.6058 C.ar    1  UNL1       -0.0353
     28 C          -2.1818    1.5763    2.9727 C.3     1  UNL1        0.0483
     29 C          -3.0312    1.9044    1.7417 C.3     1  UNL1        0.0891
     30 H          -4.0431    1.5275    1.8901 H       1  UNL1        0.0625
     31 C          -2.4200    1.2406    0.4994 C.3     1  UNL1        0.0426
     32 O          -3.0802    3.3118    1.5603 O.3     1  UNL1       -0.3676
     33 H          -1.9846   -0.3508   -0.9790 H       1  UNL1        0.0625
     34 H          -2.0483   -2.8090   -1.0310 H       1  UNL1        0.0623
     35 H           1.7726   -2.9675    0.8604 H       1  UNL1        0.0623
     36 H           1.8596   -0.5100    0.9158 H       1  UNL1        0.0625
     37 H          -0.1326    3.7511    0.0217 H       1  UNL1        0.0490
     38 H          -1.7187    3.6861   -0.7914 H       1  UNL1        0.0490
     39 H           0.0907    4.0648    2.3367 H       1  UNL1        0.0470
     40 H          -1.3123    4.2584    3.4206 H       1  UNL1        0.0470
     41 H           2.0660    3.3662    4.5382 H       1  UNL1        0.0637
     42 H           2.6656    3.4732    6.9240 H       1  UNL1        0.0618
     43 H           1.9046    1.7099    8.4650 H       1  UNL1        0.0618
     44 H           0.5433   -0.1600    7.6203 H       1  UNL1        0.0618
     45 H          -0.0603   -0.2645    5.2354 H       1  UNL1        0.0637
     46 H          -2.0114    0.5010    3.0241 H       1  UNL1        0.0470
     47 H          -2.6966    1.9120    3.8730 H       1  UNL1        0.0470
     48 H          -3.1045    1.3400   -0.3431 H       1  UNL1        0.0490
     49 H          -2.2345    0.1857    0.7017 H       1  UNL1        0.0490
@<TRIPOS>BOND
     1     1     2    2
     2     2     3    1
     3     2    13   am
     4     3    12   ar
     5     3     4   ar
     6     4     5   ar
     7     4    33    1
     8     5     6   ar
     9     5    34    1
    10     6     7    1
    11     6    11   ar
    12     7     8    1
    13     7     9    1
    14     7    10    1
    15    11    12   ar
    16    11    35    1
    17    12    36    1
    18    13    31    1
    19    13    14    1
    20    14    15    1
    21    14    37    1
    22    14    38    1
    23    15    16    1
    24    15    32    1
    25    15    17    1
    26    17    18    1
    27    17    39    1
    28    17    40    1
    29    19    18    1
    30    18    28    1
    31    19    20    2
    32    19    21    2
    33    19    22    1
    34    22    27   ar
    35    22    23   ar
    36    23    24   ar
    37    23    41    1
    38    24    25   ar
    39    24    42    1
    40    25    26   ar
    41    25    43    1
    42    26    27   ar
    43    26    44    1
    44    27    45    1
    45    28    29    1
    46    28    46    1
    47    28    47    1
    48    29    30    1
    49    29    31    1
    50    29    32    1
    51    31    48    1
    52    31    49    1
