@<TRIPOS>MOLECULE
ZINC000024686437
 40 41 0 0 0
SMALL
GASTEIGER

@<TRIPOS>ATOM
      1 C          -0.6446    1.3744    1.3306 C.3     1  UNL1        0.0001
      2 N          -0.6389   -0.0885    1.2521 N.am    1  UNL1       -0.3170
      3 C          -1.1323   -0.7066    0.1609 C.2     1  UNL1        0.2317
      4 O          -1.5811   -0.0519   -0.7561 O.2     1  UNL1       -0.2740
      5 C          -1.1265   -2.2115    0.0801 C.3     1  UNL1        0.1077
      6 H          -0.5619   -2.6202    0.9181 H       1  UNL1        0.0575
      7 C          -0.4816   -2.6525   -1.2376 C.3     1  UNL1       -0.0272
      8 C          -0.6036   -4.1717   -1.3772 C.3     1  UNL1       -0.0499
      9 C          -2.0821   -4.5657   -1.4074 C.3     1  UNL1       -0.0385
     10 C          -2.7452   -4.1464   -0.0917 C.3     1  UNL1        0.0213
     11 N          -2.5070   -2.7125    0.1253 N.3     1  UNL1       -0.1647
     12 S          -3.7708   -1.6807    0.4088 S.O2    1  UNL1        0.0615
     13 O          -4.7524   -2.4317    1.1100 O.2     1  UNL1       -0.1528
     14 O          -3.2030   -0.4802    0.9144 O.2     1  UNL1       -0.1528
     15 C          -4.4759   -1.2775   -1.1548 C.ar    1  UNL1        0.1055
     16 C          -4.0066   -0.1880   -1.8644 C.ar    1  UNL1       -0.0348
     17 C          -4.5598    0.1282   -3.0911 C.ar    1  UNL1       -0.0483
     18 C          -5.5820   -0.6453   -3.6084 C.ar    1  UNL1        0.0549
     19 C          -6.1855   -0.3002   -4.9455 C.3     1  UNL1        0.4174
     20 F          -5.4855   -0.9645   -5.9584 F       1  UNL1       -0.1659
     21 F          -7.5268   -0.6970   -4.9682 F       1  UNL1       -0.1659
     22 F          -6.1042    1.0812   -5.1513 F       1  UNL1       -0.1659
     23 C          -6.0505   -1.7356   -2.8994 C.ar    1  UNL1       -0.0483
     24 C          -5.4947   -2.0541   -1.6745 C.ar    1  UNL1       -0.0348
     25 H          -0.2092    1.6891    2.2791 H       1  UNL1        0.0426
     26 H          -0.0587    1.7847    0.5081 H       1  UNL1        0.0426
     27 H          -1.6699    1.7379    1.2631 H       1  UNL1        0.0426
     28 H          -0.2800   -0.6121    1.9855 H       1  UNL1        0.1484
     29 H          -0.9901   -2.1685   -2.0714 H       1  UNL1        0.0286
     30 H           0.5713   -2.3704   -1.2397 H       1  UNL1        0.0286
     31 H          -0.1238   -4.4910   -2.3024 H       1  UNL1        0.0266
     32 H          -0.1163   -4.6545   -0.5302 H       1  UNL1        0.0266
     33 H          -2.5755   -4.0637   -2.2397 H       1  UNL1        0.0278
     34 H          -2.1684   -5.6453   -1.5304 H       1  UNL1        0.0278
     35 H          -3.8174   -4.3346   -0.1466 H       1  UNL1        0.0444
     36 H          -2.3140   -4.7149    0.7323 H       1  UNL1        0.0444
     37 H          -3.2079    0.4163   -1.4603 H       1  UNL1        0.0637
     38 H          -4.1936    0.9799   -3.6452 H       1  UNL1        0.0624
     39 H          -6.8489   -2.3402   -3.3038 H       1  UNL1        0.0624
     40 H          -5.8606   -2.9060   -1.1205 H       1  UNL1        0.0637
@<TRIPOS>BOND
     1     1     2    1
     2     1    25    1
     3     1    26    1
     4     1    27    1
     5     2     3   am
     6     2    28    1
     7     3     4    2
     8     3     5    1
     9     5     6    1
    10     5    11    1
    11     5     7    1
    12     7     8    1
    13     7    29    1
    14     7    30    1
    15     8     9    1
    16     8    31    1
    17     8    32    1
    18     9    10    1
    19     9    33    1
    20     9    34    1
    21    10    11    1
    22    10    35    1
    23    10    36    1
    24    12    11    1
    25    12    13    2
    26    12    14    2
    27    12    15    1
    28    15    24   ar
    29    15    16   ar
    30    16    17   ar
    31    16    37    1
    32    17    18   ar
    33    17    38    1
    34    18    19    1
    35    18    23   ar
    36    19    20    1
    37    19    21    1
    38    19    22    1
    39    23    24   ar
    40    23    39    1
    41    24    40    1
