@<TRIPOS>MOLECULE
ZINC000009419410
 38 40 0 0 0
SMALL
GASTEIGER

@<TRIPOS>ATOM
      1 O           0.0021   -0.0041    0.0020 O.2     1  UNL1       -0.2754
      2 C          -0.0144    1.2086    0.0087 C.2     1  UNL1        0.2182
      3 N           1.1435    1.8983    0.0013 N.am    1  UNL1       -0.2796
      4 C           2.4220    1.1832   -0.0147 C.3     1  UNL1        0.2776
      5 C           2.5831    0.3433    1.2540 C.3     1  UNL1        0.4365
      6 F           1.5516   -0.5992    1.3235 F       1  UNL1       -0.1662
      7 F           3.8164   -0.3165    1.2230 F       1  UNL1       -0.1662
      8 F           2.5288    1.1777    2.3756 F       1  UNL1       -0.1662
      9 N           3.5427    2.1281   -0.1603 N.am    1  UNL1       -0.2632
     10 C           4.1664    1.8112   -1.3094 C.2     1  UNL1        0.3110
     11 O           5.1419    2.3994   -1.7331 O.2     1  UNL1       -0.2521
     12 N           3.5929    0.7761   -1.9335 N.am    1  UNL1       -0.2181
     13 C           4.0633    0.2175   -3.2035 C.3     1  UNL1        0.0503
     14 C           5.0714   -0.8692   -2.9316 C.ar    1  UNL1       -0.0113
     15 C           6.4229   -0.5997   -3.0351 C.ar    1  UNL1       -0.0557
     16 C           7.3479   -1.5966   -2.7857 C.ar    1  UNL1       -0.0614
     17 C           6.9216   -2.8633   -2.4331 C.ar    1  UNL1       -0.0604
     18 C           5.5700   -3.1340   -2.3293 C.ar    1  UNL1       -0.0431
     19 C           4.6442   -2.1354   -2.5727 C.ar    1  UNL1        0.0457
     20 CL          2.9466   -2.4746   -2.4425 Cl      1  UNL1       -0.0832
     21 C           2.5293    0.3103   -1.2493 C.2     1  UNL1        0.2745
     22 O           1.8089   -0.6150   -1.5568 O.2     1  UNL1       -0.2706
     23 C          -1.3296    1.9443    0.0189 C.3     1  UNL1        0.0357
     24 C          -2.1936    1.8643   -1.2412 C.3     1  UNL1       -0.0412
     25 C          -2.6086    1.1047    0.0204 C.3     1  UNL1       -0.0412
     26 H           1.1304    2.8682    0.0067 H       1  UNL1        0.1515
     27 H           3.7835    2.8404    0.4525 H       1  UNL1        0.1530
     28 H           3.2188   -0.1994   -3.7521 H       1  UNL1        0.0520
     29 H           4.5288    1.0048   -3.7965 H       1  UNL1        0.0520
     30 H           6.7566    0.3896   -3.3112 H       1  UNL1        0.0621
     31 H           8.4040   -1.3856   -2.8667 H       1  UNL1        0.0618
     32 H           7.6446   -3.6418   -2.2391 H       1  UNL1        0.0618
     33 H           5.2370   -4.1238   -2.0538 H       1  UNL1        0.0632
     34 H          -1.3407    2.8795    0.5787 H       1  UNL1        0.0394
     35 H          -2.7733    2.7471   -1.5108 H       1  UNL1        0.0273
     36 H          -1.8108    1.2795   -2.0776 H       1  UNL1        0.0273
     37 H          -2.4989    0.0203    0.0140 H       1  UNL1        0.0273
     38 H          -3.4614    1.4878    0.5808 H       1  UNL1        0.0273
@<TRIPOS>BOND
     1     1     2    2
     2     2     3   am
     3     2    23    1
     4     3    26    1
     5     4     3    1
     6     4    21    1
     7     4     5    1
     8     4     9    1
     9     5     6    1
    10     5     7    1
    11     5     8    1
    12     9    10   am
    13     9    27    1
    14    10    11    2
    15    10    12   am
    16    12    13    1
    17    12    21   am
    18    13    14    1
    19    13    28    1
    20    13    29    1
    21    14    19   ar
    22    14    15   ar
    23    15    16   ar
    24    15    30    1
    25    16    17   ar
    26    16    31    1
    27    17    18   ar
    28    17    32    1
    29    18    19   ar
    30    18    33    1
    31    19    20    1
    32    21    22    2
    33    23    25    1
    34    23    24    1
    35    23    34    1
    36    24    25    1
    37    24    35    1
    38    24    36    1
    39    25    37    1
    40    25    38    1
