@<TRIPOS>MOLECULE
ZINC000036396160
 57 58 0 0 0
SMALL
GASTEIGER

@<TRIPOS>ATOM
      1 C           0.0206    1.5197    0.0032 C.3     1  UNL1       -0.0650
      2 C           0.0342   -0.0102   -0.0053 C.3     1  UNL1       -0.0519
      3 C          -1.4035   -0.5331    0.0135 C.3     1  UNL1       -0.0279
      4 C          -1.3901   -2.0400    0.0051 C.ar    1  UNL1       -0.0473
      5 C          -1.3963   -2.7233   -1.1971 C.ar    1  UNL1       -0.0568
      6 C          -1.3841   -4.1042   -1.2084 C.ar    1  UNL1       -0.0406
      7 C          -1.3655   -4.8069   -0.0103 C.ar    1  UNL1        0.0275
      8 N          -1.3526   -6.2036   -0.0180 N.pl3   1  UNL1       -0.3354
      9 C          -1.3331   -6.9430    1.2465 C.3     1  UNL1        0.0861
     10 C          -1.3222   -8.4230    0.9629 C.2     1  UNL1        0.2343
     11 O          -1.3300   -8.8210   -0.1828 O.2     1  UNL1       -0.2738
     12 N          -1.3037   -9.3044    1.9824 N.am    1  UNL1       -0.2842
     13 C          -1.3914  -10.6765    1.7226 C.ar    1  UNL1        0.0335
     14 C          -2.0771  -11.5080    2.5983 C.ar    1  UNL1       -0.0386
     15 C          -2.1618  -12.8620    2.3391 C.ar    1  UNL1       -0.0336
     16 C          -1.5644  -13.3898    1.2093 C.ar    1  UNL1        0.1056
     17 S          -1.6743  -15.1178    0.8825 S.O2    1  UNL1        0.0608
     18 O          -0.5725  -15.4385    0.0444 O.2     1  UNL1       -0.1528
     19 O          -1.9083  -15.7487    2.1341 O.2     1  UNL1       -0.1528
     20 N          -3.0382  -15.3592   -0.0252 N.3     1  UNL1       -0.1771
     21 C          -2.9634  -15.3086   -1.4874 C.3     1  UNL1        0.0177
     22 C          -2.7877  -16.7251   -2.0384 C.3     1  UNL1       -0.0507
     23 C          -4.3195  -15.6235    0.6340 C.3     1  UNL1        0.0177
     24 C          -5.0946  -14.3132    0.7862 C.3     1  UNL1       -0.0507
     25 C          -0.8813  -12.5644    0.3350 C.ar    1  UNL1       -0.0336
     26 C          -0.7978  -11.2088    0.5856 C.ar    1  UNL1       -0.0386
     27 C          -1.3593   -4.1174    1.1956 C.ar    1  UNL1       -0.0406
     28 C          -1.3659   -2.7364    1.1996 C.ar    1  UNL1       -0.0568
     29 H           1.0449    1.8922   -0.0102 H       1  UNL1        0.0230
     30 H          -0.5098    1.8832   -0.8769 H       1  UNL1        0.0230
     31 H          -0.4830    1.8736    0.9028 H       1  UNL1        0.0230
     32 H           0.5378   -0.3641   -0.9049 H       1  UNL1        0.0266
     33 H           0.5646   -0.3737    0.8748 H       1  UNL1        0.0266
     34 H          -1.9071   -0.1792    0.9131 H       1  UNL1        0.0313
     35 H          -1.9339   -0.1696   -0.8666 H       1  UNL1        0.0313
     36 H          -1.4111   -2.1764   -2.1283 H       1  UNL1        0.0621
     37 H          -1.3893   -4.6372   -2.1477 H       1  UNL1        0.0636
     38 H          -1.3567   -6.6839   -0.8607 H       1  UNL1        0.1466
     39 H          -0.4398   -6.6745    1.8106 H       1  UNL1        0.0557
     40 H          -2.2196   -6.6910    1.8285 H       1  UNL1        0.0557
     41 H          -1.2297   -8.9875    2.8962 H       1  UNL1        0.1549
     42 H          -2.5434  -11.0965    3.4813 H       1  UNL1        0.0637
     43 H          -2.6950  -13.5092    3.0198 H       1  UNL1        0.0638
     44 H          -3.8822  -14.8760   -1.8834 H       1  UNL1        0.0441
     45 H          -2.1142  -14.6943   -1.7867 H       1  UNL1        0.0441
     46 H          -2.7321  -16.6874   -3.1264 H       1  UNL1        0.0243
     47 H          -1.8689  -17.1576   -1.6424 H       1  UNL1        0.0243
     48 H          -3.6370  -17.3393   -1.7391 H       1  UNL1        0.0243
     49 H          -4.9008  -16.3217    0.0317 H       1  UNL1        0.0441
     50 H          -4.1394  -16.0555    1.6184 H       1  UNL1        0.0441
     51 H          -5.2747  -13.8812   -0.1982 H       1  UNL1        0.0243
     52 H          -6.0479  -14.5098    1.2767 H       1  UNL1        0.0243
     53 H          -4.5133  -13.6150    1.3885 H       1  UNL1        0.0243
     54 H          -0.4158  -12.9797   -0.5465 H       1  UNL1        0.0638
     55 H          -0.2641  -10.5646   -0.0976 H       1  UNL1        0.0637
     56 H          -1.3453   -4.6607    2.1289 H       1  UNL1        0.0636
     57 H          -1.3611   -2.1997    2.1368 H       1  UNL1        0.0621
@<TRIPOS>BOND
     1     1     2    1
     2     1    29    1
     3     1    30    1
     4     1    31    1
     5     2     3    1
     6     2    32    1
     7     2    33    1
     8     3     4    1
     9     3    34    1
    10     3    35    1
    11     4    28   ar
    12     4     5   ar
    13     5     6   ar
    14     5    36    1
    15     6     7   ar
    16     6    37    1
    17     7     8    1
    18     7    27   ar
    19     8     9    1
    20     8    38    1
    21     9    10    1
    22     9    39    1
    23     9    40    1
    24    10    11    2
    25    10    12   am
    26    12    13    1
    27    12    41    1
    28    13    26   ar
    29    13    14   ar
    30    14    15   ar
    31    14    42    1
    32    15    16   ar
    33    15    43    1
    34    16    17    1
    35    16    25   ar
    36    17    18    2
    37    17    19    2
    38    17    20    1
    39    20    21    1
    40    20    23    1
    41    21    22    1
    42    21    44    1
    43    21    45    1
    44    22    46    1
    45    22    47    1
    46    22    48    1
    47    23    24    1
    48    23    49    1
    49    23    50    1
    50    24    51    1
    51    24    52    1
    52    24    53    1
    53    25    26   ar
    54    25    54    1
    55    26    55    1
    56    27    28   ar
    57    27    56    1
    58    28    57    1
