@<TRIPOS>MOLECULE
ZINC000016301532
 50 52 0 0 0
SMALL
GASTEIGER

@<TRIPOS>ATOM
      1 O           0.0021   -0.0041    0.0020 O.2     1  UNL1       -0.2755
      2 C          -0.0144    1.2086    0.0087 C.2     1  UNL1        0.2165
      3 N           1.1435    1.8983    0.0013 N.am    1  UNL1       -0.3110
      4 C           2.4220    1.1832   -0.0147 C.3     1  UNL1        0.0368
      5 C           3.5540    2.1779   -0.0202 C.ar    1  UNL1       -0.0303
      6 C           4.0580    2.6449   -1.2197 C.ar    1  UNL1       -0.0565
      7 C           5.0964    3.5574   -1.2247 C.ar    1  UNL1       -0.0498
      8 C           5.6304    4.0033   -0.0302 C.ar    1  UNL1        0.0548
      9 C           6.7628    4.9977   -0.0357 C.3     1  UNL1        0.4174
     10 F           6.2430    6.2964   -0.0182 F       1  UNL1       -0.1659
     11 F           7.5623    4.8002    1.0952 F       1  UNL1       -0.1659
     12 F           7.5342    4.8196   -1.1891 F       1  UNL1       -0.1659
     13 C           5.1256    3.5374    1.1693 C.ar    1  UNL1       -0.0498
     14 C           4.0846    2.6278    1.1744 C.ar    1  UNL1       -0.0565
     15 C          -1.3296    1.9443    0.0189 C.3     1  UNL1        0.0380
     16 C          -1.4275    2.8309   -1.2246 C.3     1  UNL1       -0.0274
     17 C          -2.7501    3.6032   -1.1933 C.3     1  UNL1        0.0212
     18 N          -3.8541    2.6447   -1.0472 N.3     1  UNL1       -0.1765
     19 S          -5.1196    2.6461   -2.1152 S.O2    1  UNL1        0.0609
     20 O          -6.2181    2.0530   -1.4364 O.2     1  UNL1       -0.1528
     21 O          -5.1667    3.9493   -2.6799 O.2     1  UNL1       -0.1528
     22 C          -4.6954    1.5501   -3.4280 C.ar    1  UNL1        0.1056
     23 C          -4.0204    2.0278   -4.5358 C.ar    1  UNL1       -0.0326
     24 C          -3.6871    1.1691   -5.5660 C.ar    1  UNL1       -0.0246
     25 C          -4.0293   -0.1703   -5.4882 C.ar    1  UNL1        0.1235
     26 F          -3.7036   -1.0108   -6.4946 F       1  UNL1       -0.2055
     27 C          -4.7050   -0.6477   -4.3780 C.ar    1  UNL1       -0.0246
     28 C          -5.0329    0.2119   -3.3468 C.ar    1  UNL1       -0.0326
     29 C          -3.8135    1.6846    0.0643 C.3     1  UNL1        0.0212
     30 C          -2.4790    0.9339    0.0189 C.3     1  UNL1       -0.0274
     31 H           1.1304    2.8682    0.0067 H       1  UNL1        0.1490
     32 H           2.4967    0.5526    0.8712 H       1  UNL1        0.0512
     33 H           2.4797    0.5621   -0.9086 H       1  UNL1        0.0512
     34 H           3.6407    2.2965   -2.1529 H       1  UNL1        0.0621
     35 H           5.4906    3.9217   -2.1619 H       1  UNL1        0.0623
     36 H           5.5426    3.8860    2.1026 H       1  UNL1        0.0623
     37 H           3.6902    2.2638    2.1116 H       1  UNL1        0.0621
     38 H          -1.3916    2.5648    0.9129 H       1  UNL1        0.0395
     39 H          -0.5954    3.5349   -1.2360 H       1  UNL1        0.0285
     40 H          -1.3905    2.2088   -2.1189 H       1  UNL1        0.0285
     41 H          -2.7508    4.2928   -0.3492 H       1  UNL1        0.0444
     42 H          -2.8702    4.1600   -2.1227 H       1  UNL1        0.0444
     43 H          -3.7536    3.0726   -4.5962 H       1  UNL1        0.0638
     44 H          -3.1604    1.5427   -6.4317 H       1  UNL1        0.0647
     45 H          -4.9727   -1.6922   -4.3164 H       1  UNL1        0.0647
     46 H          -5.5597   -0.1603   -2.4806 H       1  UNL1        0.0638
     47 H          -3.9009    2.2177    1.0110 H       1  UNL1        0.0444
     48 H          -4.6353    0.9755   -0.0353 H       1  UNL1        0.0444
     49 H          -2.4321    0.3296   -0.8871 H       1  UNL1        0.0285
     50 H          -2.3953    0.2876    0.8926 H       1  UNL1        0.0285
@<TRIPOS>BOND
     1     1     2    2
     2     2     3   am
     3     2    15    1
     4     3     4    1
     5     3    31    1
     6     4     5    1
     7     4    32    1
     8     4    33    1
     9     5    14   ar
    10     5     6   ar
    11     6     7   ar
    12     6    34    1
    13     7     8   ar
    14     7    35    1
    15     8     9    1
    16     8    13   ar
    17     9    10    1
    18     9    11    1
    19     9    12    1
    20    13    14   ar
    21    13    36    1
    22    14    37    1
    23    15    30    1
    24    15    16    1
    25    15    38    1
    26    16    17    1
    27    16    39    1
    28    16    40    1
    29    17    18    1
    30    17    41    1
    31    17    42    1
    32    19    18    1
    33    18    29    1
    34    19    20    2
    35    19    21    2
    36    19    22    1
    37    22    28   ar
    38    22    23   ar
    39    23    24   ar
    40    23    43    1
    41    24    25   ar
    42    24    44    1
    43    25    26    1
    44    25    27   ar
    45    27    28   ar
    46    27    45    1
    47    28    46    1
    48    29    30    1
    49    29    47    1
    50    29    48    1
    51    30    49    1
    52    30    50    1
