@<TRIPOS>MOLECULE
ZINC000020903285
 61 62 0 0 0
SMALL
GASTEIGER

@<TRIPOS>ATOM
      1 C          -0.0187    1.5258    0.0104 C.3     1  UNL1       -0.0507
      2 C           0.0021   -0.0041    0.0020 C.3     1  UNL1        0.0177
      3 N           0.6878   -0.4765   -1.2033 N.3     1  UNL1       -0.1771
      4 C           2.1478   -0.5966   -1.2159 C.3     1  UNL1        0.0177
      5 C           2.5532   -1.9514   -0.6319 C.3     1  UNL1       -0.0507
      6 S          -0.1875   -0.8749   -2.5515 S.O2    1  UNL1        0.0608
      7 O           0.6166   -1.7761   -3.3001 O.2     1  UNL1       -0.1528
      8 O          -1.4970   -1.1925   -2.1004 O.2     1  UNL1       -0.1528
      9 C          -0.3375    0.5853   -3.5262 C.ar    1  UNL1        0.1055
     10 C          -1.4057    1.4405   -3.3300 C.ar    1  UNL1       -0.0351
     11 C          -1.5234    2.5861   -4.0947 C.ar    1  UNL1       -0.0567
     12 C          -0.5727    2.8767   -5.0552 C.ar    1  UNL1       -0.0468
     13 C          -0.7013    4.1253   -5.8892 C.3     1  UNL1       -0.0194
     14 C           0.0204    5.2805   -5.1924 C.3     1  UNL1        0.0279
     15 C          -0.1082    6.5291   -6.0263 C.2     1  UNL1        0.2135
     16 O          -0.7171    6.4981   -7.0748 O.2     1  UNL1       -0.2758
     17 N           0.4534    7.6803   -5.6071 N.am    1  UNL1       -0.3127
     18 C           0.3284    8.8941   -6.4178 C.3     1  UNL1        0.0206
     19 H           0.3480    8.6287   -7.4748 H       1  UNL1        0.0495
     20 C          -0.9938    9.5914   -6.0915 C.3     1  UNL1       -0.0466
     21 C           1.4925    9.8371   -6.1071 C.3     1  UNL1       -0.0308
     22 C           2.8060    9.1887   -6.5490 C.3     1  UNL1       -0.0260
     23 C           3.9526   10.1175   -6.2430 C.ar    1  UNL1       -0.0473
     24 C           4.3581   11.0477   -7.1818 C.ar    1  UNL1       -0.0586
     25 C           5.4099   11.8996   -6.9011 C.ar    1  UNL1       -0.0615
     26 C           6.0559   11.8217   -5.6814 C.ar    1  UNL1       -0.0617
     27 C           5.6498   10.8921   -4.7423 C.ar    1  UNL1       -0.0615
     28 C           4.5953   10.0430   -5.0214 C.ar    1  UNL1       -0.0586
     29 C           0.4962    2.0221   -5.2504 C.ar    1  UNL1       -0.0567
     30 C           0.6160    0.8786   -4.4831 C.ar    1  UNL1       -0.0351
     31 H           1.0039    1.9031    0.0027 H       1  UNL1        0.0243
     32 H          -0.5459    1.8868   -0.8726 H       1  UNL1        0.0243
     33 H          -0.5289    1.8773    0.9072 H       1  UNL1        0.0243
     34 H           0.5293   -0.3651    0.8851 H       1  UNL1        0.0441
     35 H          -1.0205   -0.3814    0.0098 H       1  UNL1        0.0441
     36 H           2.5098   -0.5199   -2.2412 H       1  UNL1        0.0441
     37 H           2.5833    0.2026   -0.6162 H       1  UNL1        0.0441
     38 H           2.1912   -2.0280    0.3934 H       1  UNL1        0.0243
     39 H           2.1177   -2.7506   -1.2316 H       1  UNL1        0.0243
     40 H           3.6395   -2.0407   -0.6413 H       1  UNL1        0.0243
     41 H          -2.1485    1.2135   -2.5796 H       1  UNL1        0.0637
     42 H          -2.3583    3.2539   -3.9419 H       1  UNL1        0.0621
     43 H          -0.2543    3.9556   -6.8687 H       1  UNL1        0.0318
     44 H          -1.7555    4.3750   -6.0092 H       1  UNL1        0.0318
     45 H          -0.4267    5.4502   -4.2129 H       1  UNL1        0.0361
     46 H           1.0745    5.0308   -5.0723 H       1  UNL1        0.0361
     47 H           0.9404    7.7052   -4.7686 H       1  UNL1        0.1490
     48 H          -1.0868   10.4946   -6.6947 H       1  UNL1        0.0247
     49 H          -1.8232    8.9197   -6.3129 H       1  UNL1        0.0247
     50 H          -1.0134    9.8569   -5.0345 H       1  UNL1        0.0247
     51 H           1.3525   10.7760   -6.6429 H       1  UNL1        0.0286
     52 H           1.5261   10.0319   -5.0352 H       1  UNL1        0.0286
     53 H           2.9460    8.2498   -6.0133 H       1  UNL1        0.0314
     54 H           2.7724    8.9938   -7.6210 H       1  UNL1        0.0314
     55 H           3.8533   11.1085   -8.1346 H       1  UNL1        0.0620
     56 H           5.7271   12.6259   -7.6347 H       1  UNL1        0.0618
     57 H           6.8781   12.4868   -5.4624 H       1  UNL1        0.0618
     58 H           6.1548   10.8310   -3.7896 H       1  UNL1        0.0618
     59 H           4.2780    9.3168   -4.2877 H       1  UNL1        0.0620
     60 H           1.2392    2.2494   -6.0006 H       1  UNL1        0.0621
     61 H           1.4511    0.2109   -4.6357 H       1  UNL1        0.0637
@<TRIPOS>BOND
     1     1     2    1
     2     1    31    1
     3     1    32    1
     4     1    33    1
     5     2     3    1
     6     2    34    1
     7     2    35    1
     8     3     4    1
     9     6     3    1
    10     4     5    1
    11     4    36    1
    12     4    37    1
    13     5    38    1
    14     5    39    1
    15     5    40    1
    16     6     7    2
    17     6     8    2
    18     6     9    1
    19     9    30   ar
    20     9    10   ar
    21    10    11   ar
    22    10    41    1
    23    11    12   ar
    24    11    42    1
    25    12    13    1
    26    12    29   ar
    27    13    14    1
    28    13    43    1
    29    13    44    1
    30    14    15    1
    31    14    45    1
    32    14    46    1
    33    15    16    2
    34    15    17   am
    35    17    18    1
    36    17    47    1
    37    18    19    1
    38    18    20    1
    39    18    21    1
    40    20    48    1
    41    20    49    1
    42    20    50    1
    43    21    22    1
    44    21    51    1
    45    21    52    1
    46    22    23    1
    47    22    53    1
    48    22    54    1
    49    23    28   ar
    50    23    24   ar
    51    24    25   ar
    52    24    55    1
    53    25    26   ar
    54    25    56    1
    55    26    27   ar
    56    26    57    1
    57    27    28   ar
    58    27    58    1
    59    28    59    1
    60    29    30   ar
    61    29    60    1
    62    30    61    1
