@<TRIPOS>MOLECULE
ZINC000011717562
 48 49 0 0 0
SMALL
GASTEIGER

@<TRIPOS>ATOM
      1 C           0.9319   -0.2456   -1.2015 C.3     1  UNL1       -0.0409
      2 C           0.0213    0.0240   -0.0019 C.3     1  UNL1        0.0847
      3 H          -0.2478    1.0801    0.0199 H       1  UNL1        0.0556
      4 C          -1.2280   -0.8102   -0.1221 C.2     1  UNL1        0.2342
      5 O          -1.4204   -1.7284    0.6467 O.2     1  UNL1       -0.2738
      6 N          -2.1315   -0.5360   -1.0839 N.am    1  UNL1       -0.2842
      7 C          -3.3382   -1.2427   -1.1321 C.ar    1  UNL1        0.0335
      8 C          -4.5027   -0.6043   -1.5386 C.ar    1  UNL1       -0.0399
      9 C          -5.6922   -1.3046   -1.5851 C.ar    1  UNL1       -0.0484
     10 C          -5.7246   -2.6399   -1.2270 C.ar    1  UNL1        0.0549
     11 C          -7.0243   -3.4008   -1.2784 C.3     1  UNL1        0.4174
     12 F          -7.1774   -3.9774   -2.5439 F       1  UNL1       -0.1659
     13 F          -7.0148   -4.4064   -0.3059 F       1  UNL1       -0.1659
     14 F          -8.0874   -2.5250   -1.0333 F       1  UNL1       -0.1659
     15 C          -4.5668   -3.2785   -0.8223 C.ar    1  UNL1       -0.0484
     16 C          -3.3730   -2.5853   -0.7791 C.ar    1  UNL1       -0.0399
     17 N           0.7272   -0.3272    1.2375 N.3     1  UNL1       -0.2916
     18 C           1.1879   -1.7211    1.2038 C.3     1  UNL1        0.0011
     19 C           2.0410   -2.0078    2.4416 C.3     1  UNL1       -0.0231
     20 C           1.2059   -1.7569    3.7003 C.3     1  UNL1        0.0308
     21 N           2.0346   -1.9736    4.8888 N.3     1  UNL1       -0.1916
     22 S           1.3654   -2.6221    6.2578 S.O2    1  UNL1        0.0268
     23 C           0.8838   -4.3027    5.7737 C.3     1  UNL1        0.0705
     24 O           2.4385   -2.6595    7.1885 O.2     1  UNL1       -0.1585
     25 O           0.2150   -1.8233    6.4978 O.2     1  UNL1       -0.1585
     26 C           0.6982   -0.3124    3.6869 C.3     1  UNL1       -0.0231
     27 C          -0.1159   -0.0748    2.4130 C.3     1  UNL1        0.0011
     28 H           1.2009   -1.3016   -1.2233 H       1  UNL1        0.0249
     29 H           0.4081    0.0150   -2.1212 H       1  UNL1        0.0249
     30 H           1.8355    0.3578   -1.1146 H       1  UNL1        0.0249
     31 H          -1.9452    0.1512   -1.7426 H       1  UNL1        0.1549
     32 H          -4.4781    0.4387   -1.8177 H       1  UNL1        0.0636
     33 H          -6.5981   -0.8087   -1.9011 H       1  UNL1        0.0624
     34 H          -4.5953   -4.3215   -0.5432 H       1  UNL1        0.0624
     35 H          -2.4690   -3.0847   -0.4629 H       1  UNL1        0.0636
     36 H           0.3260   -2.3883    1.1943 H       1  UNL1        0.0427
     37 H           1.7839   -1.8851    0.3061 H       1  UNL1        0.0427
     38 H           2.3698   -3.0469    2.4242 H       1  UNL1        0.0293
     39 H           2.9104   -1.3504    2.4447 H       1  UNL1        0.0293
     40 H           0.3582   -2.4418    3.7175 H       1  UNL1        0.0478
     41 H           2.9752   -1.7371    4.8739 H       1  UNL1        0.1479
     42 H           1.7665   -4.8550    5.4513 H       1  UNL1        0.0479
     43 H           0.4288   -4.8096    6.6247 H       1  UNL1        0.0479
     44 H           0.1667   -4.2534    4.9543 H       1  UNL1        0.0479
     45 H           0.0677   -0.1402    4.5592 H       1  UNL1        0.0293
     46 H           1.5465    0.3717    3.7095 H       1  UNL1        0.0293
     47 H          -0.4669    0.9569    2.3934 H       1  UNL1        0.0427
     48 H          -0.9717   -0.7497    2.3977 H       1  UNL1        0.0427
@<TRIPOS>BOND
     1     1     2    1
     2     1    28    1
     3     1    29    1
     4     1    30    1
     5     2     3    1
     6     2     4    1
     7     2    17    1
     8     4     5    2
     9     4     6   am
    10     6     7    1
    11     6    31    1
    12     7    16   ar
    13     7     8   ar
    14     8     9   ar
    15     8    32    1
    16     9    10   ar
    17     9    33    1
    18    10    11    1
    19    10    15   ar
    20    11    12    1
    21    11    13    1
    22    11    14    1
    23    15    16   ar
    24    15    34    1
    25    16    35    1
    26    17    27    1
    27    17    18    1
    28    18    19    1
    29    18    36    1
    30    18    37    1
    31    19    20    1
    32    19    38    1
    33    19    39    1
    34    20    21    1
    35    20    26    1
    36    20    40    1
    37    22    21    1
    38    21    41    1
    39    22    23    1
    40    22    24    2
    41    22    25    2
    42    23    42    1
    43    23    43    1
    44    23    44    1
    45    26    27    1
    46    26    45    1
    47    26    46    1
    48    27    47    1
    49    27    48    1
