@<TRIPOS>MOLECULE
ZINC000095432519
 61 63 0 0 0
SMALL
GASTEIGER

@<TRIPOS>ATOM
      1 C          -1.2840    3.5545   -0.4430 C.3     1  UNL1       -0.0507
      2 C          -0.7579    2.3257    0.3015 C.3     1  UNL1        0.0177
      3 N           0.3924    1.7739   -0.4186 N.3     1  UNL1       -0.1771
      4 C           1.7328    2.3162   -0.1831 C.3     1  UNL1        0.0177
      5 C           2.3533    1.6309    1.0360 C.3     1  UNL1       -0.0507
      6 S           0.1776    0.5372   -1.4987 S.O2    1  UNL1        0.0609
      7 O           1.4286   -0.1292   -1.5998 O.2     1  UNL1       -0.1528
      8 O          -1.0249   -0.1199   -1.1224 O.2     1  UNL1       -0.1528
      9 C          -0.1261    1.2669   -3.0735 C.ar    1  UNL1        0.1075
     10 C          -1.4205    1.5621   -3.4586 C.ar    1  UNL1       -0.0318
     11 C          -1.6650    2.1348   -4.6933 C.ar    1  UNL1       -0.0162
     12 C          -0.6116    2.4144   -5.5482 C.ar    1  UNL1        0.1421
     13 O          -0.8504    2.9780   -6.7623 O.3     1  UNL1       -0.4875
     14 C          -2.1994    3.3512   -7.0503 C.3     1  UNL1        0.0947
     15 C          -2.2051    4.5429   -8.0099 C.3     1  UNL1       -0.0281
     16 C          -2.9278    2.1716   -7.6977 C.3     1  UNL1       -0.0281
     17 C           0.6933    2.1171   -5.1607 C.ar    1  UNL1        0.0775
     18 N           1.7629    2.3981   -6.0211 N.am    1  UNL1       -0.2801
     19 C           2.8875    1.6575   -5.9625 C.2     1  UNL1        0.2507
     20 O           2.9990    0.7897   -5.1225 O.2     1  UNL1       -0.2722
     21 C           4.0062    1.9076   -6.9408 C.3     1  UNL1        0.1598
     22 H           3.5889    2.0501   -7.9376 H       1  UNL1        0.0744
     23 O           4.8842    0.7824   -6.9523 O.3     1  UNL1       -0.3624
     24 C           6.0745    1.0050   -7.7169 C.3     1  UNL1        0.0531
     25 C           6.9555    2.0031   -6.9635 C.3     1  UNL1       -0.0038
     26 C           6.1341    3.1980   -6.5514 C.ar    1  UNL1       -0.0391
     27 C           6.7888    4.3623   -6.1835 C.ar    1  UNL1       -0.0581
     28 C           6.0670    5.4744   -5.7963 C.ar    1  UNL1       -0.0615
     29 C           4.6858    5.4254   -5.7753 C.ar    1  UNL1       -0.0614
     30 C           4.0325    4.2658   -6.1437 C.ar    1  UNL1       -0.0554
     31 C           4.7579    3.1478   -6.5326 C.ar    1  UNL1       -0.0068
     32 C           0.9312    1.5480   -3.9186 C.ar    1  UNL1       -0.0105
     33 H          -0.4979    4.3071   -0.5030 H       1  UNL1        0.0243
     34 H          -1.5891    3.2667   -1.4491 H       1  UNL1        0.0243
     35 H          -2.1399    3.9650    0.0928 H       1  UNL1        0.0243
     36 H          -0.4528    2.6134    1.3076 H       1  UNL1        0.0441
     37 H          -1.5441    1.5730    0.3615 H       1  UNL1        0.0441
     38 H           2.3568    2.1354   -1.0584 H       1  UNL1        0.0441
     39 H           1.6640    3.3887   -0.0012 H       1  UNL1        0.0441
     40 H           3.3506    2.0344    1.2112 H       1  UNL1        0.0243
     41 H           1.7293    1.8117    1.9112 H       1  UNL1        0.0243
     42 H           2.4221    0.5584    0.8541 H       1  UNL1        0.0243
     43 H          -2.2431    1.3445   -2.7935 H       1  UNL1        0.0638
     44 H          -2.6775    2.3639   -4.9912 H       1  UNL1        0.0655
     45 H          -2.7054    3.6272   -6.1252 H       1  UNL1        0.0727
     46 H          -1.6991    4.2668   -8.9350 H       1  UNL1        0.0265
     47 H          -3.2341    4.8275   -8.2296 H       1  UNL1        0.0265
     48 H          -1.6863    5.3832   -7.5487 H       1  UNL1        0.0265
     49 H          -2.9237    1.3226   -7.0141 H       1  UNL1        0.0265
     50 H          -3.9568    2.4563   -7.9174 H       1  UNL1        0.0265
     51 H          -2.4217    1.8956   -8.6228 H       1  UNL1        0.0265
     52 H           1.6941    3.1257   -6.6590 H       1  UNL1        0.1550
     53 H           6.6109    0.0643   -7.8416 H       1  UNL1        0.0563
     54 H           5.8119    1.4124   -8.6932 H       1  UNL1        0.0563
     55 H           7.3688    1.5239   -6.0760 H       1  UNL1        0.0336
     56 H           7.7696    2.3287   -7.6109 H       1  UNL1        0.0336
     57 H           7.8680    4.4003   -6.1991 H       1  UNL1        0.0620
     58 H           6.5807    6.3802   -5.5102 H       1  UNL1        0.0618
     59 H           4.1185    6.2925   -5.4710 H       1  UNL1        0.0618
     60 H           2.9533    4.2282   -6.1265 H       1  UNL1        0.0621
     61 H           1.9416    1.3167   -3.6150 H       1  UNL1        0.0657
@<TRIPOS>BOND
     1     1     2    1
     2     1    33    1
     3     1    34    1
     4     1    35    1
     5     2     3    1
     6     2    36    1
     7     2    37    1
     8     3     4    1
     9     6     3    1
    10     4     5    1
    11     4    38    1
    12     4    39    1
    13     5    40    1
    14     5    41    1
    15     5    42    1
    16     6     7    2
    17     6     8    2
    18     6     9    1
    19     9    32   ar
    20     9    10   ar
    21    10    11   ar
    22    10    43    1
    23    11    12   ar
    24    11    44    1
    25    12    13    1
    26    12    17   ar
    27    13    14    1
    28    14    15    1
    29    14    16    1
    30    14    45    1
    31    15    46    1
    32    15    47    1
    33    15    48    1
    34    16    49    1
    35    16    50    1
    36    16    51    1
    37    17    18    1
    38    17    32   ar
    39    18    19   am
    40    18    52    1
    41    19    20    2
    42    19    21    1
    43    21    22    1
    44    21    31    1
    45    21    23    1
    46    23    24    1
    47    24    25    1
    48    24    53    1
    49    24    54    1
    50    25    26    1
    51    25    55    1
    52    25    56    1
    53    26    31   ar
    54    26    27   ar
    55    27    28   ar
    56    27    57    1
    57    28    29   ar
    58    28    58    1
    59    29    30   ar
    60    29    59    1
    61    30    31   ar
    62    30    60    1
    63    32    61    1
