@<TRIPOS>MOLECULE
ZINC000034812840
 49 52 0 0 0
SMALL
GASTEIGER

@<TRIPOS>ATOM
      1 C          -2.4741    1.4379    0.0559 C.3     1  UNL1        0.0124
      2 C          -2.3895   -0.0667    0.0402 C.2     1  UNL1        0.2129
      3 O          -2.2297   -0.6759    1.0766 O.2     1  UNL1       -0.2759
      4 N          -2.4914   -0.7352   -1.1256 N.am    1  UNL1       -0.2918
      5 C          -2.5407   -2.2040   -1.1438 C.3     1  UNL1        0.0511
      6 C          -1.4235   -2.7205   -2.0588 C.3     1  UNL1        0.0964
      7 N          -1.4878   -1.9939   -3.3347 N.pl3   1  UNL1       -0.2167
      8 C          -1.5928   -2.6767   -4.5252 C.2     1  UNL1        0.3249
      9 N          -1.7786   -3.9497   -4.4622 N.2     1  UNL1       -0.0376
     10 C          -1.8859   -4.8142   -5.5101 C.ar    1  UNL1        0.2183
     11 C          -1.2727   -6.0672   -5.4177 C.ar    1  UNL1       -0.0066
     12 C          -1.3904   -6.9752   -6.4511 C.ar    1  UNL1       -0.0458
     13 C          -2.1170   -6.6514   -7.5811 C.ar    1  UNL1        0.0585
     14 C          -2.2548   -7.6527   -8.6989 C.3     1  UNL1        0.4175
     15 F          -1.5667   -8.8237   -8.3635 F       1  UNL1       -0.1659
     16 F          -3.6080   -7.9474   -8.8968 F       1  UNL1       -0.1659
     17 F          -1.7177   -7.1165   -9.8742 F       1  UNL1       -0.1659
     18 C          -2.7189   -5.4092   -7.6883 C.ar    1  UNL1       -0.0034
     19 C          -2.5962   -4.4833   -6.6662 C.ar    1  UNL1        0.1794
     20 O          -3.1371   -3.2483   -6.8294 O.3     1  UNL1       -0.4508
     21 C          -2.2947   -2.1870   -6.8668 C.ar    1  UNL1        0.1435
     22 C          -2.2317   -1.3945   -8.0007 C.ar    1  UNL1       -0.0185
     23 C          -1.3528   -0.3276   -8.0537 C.ar    1  UNL1       -0.0582
     24 C          -0.5314   -0.0469   -6.9767 C.ar    1  UNL1       -0.0607
     25 C          -0.5915   -0.8211   -5.8356 C.ar    1  UNL1       -0.0433
     26 C          -1.4894   -1.8916   -5.7652 C.ar    1  UNL1        0.1077
     27 C          -1.4385   -0.5252   -3.3165 C.3     1  UNL1        0.0989
     28 C          -2.5614   -0.0084   -2.4010 C.3     1  UNL1        0.0592
     29 H          -2.4250    1.0579   -2.2211 H       1  UNL1        0.0535
     30 C          -3.9179   -0.2475   -3.0671 C.3     1  UNL1       -0.0429
     31 H          -1.4698    1.8588    0.0092 H       1  UNL1        0.0323
     32 H          -3.0511    1.7783   -0.8040 H       1  UNL1        0.0323
     33 H          -2.9628    1.7647    0.9737 H       1  UNL1        0.0323
     34 H          -2.3933   -2.5874   -0.1342 H       1  UNL1        0.0502
     35 H          -3.5074   -2.5329   -1.5251 H       1  UNL1        0.0502
     36 H          -0.4558   -2.5479   -1.5879 H       1  UNL1        0.0742
     37 H          -1.5610   -3.7869   -2.2379 H       1  UNL1        0.0742
     38 H          -0.7052   -6.3254   -4.5359 H       1  UNL1        0.0662
     39 H          -0.9130   -7.9411   -6.3763 H       1  UNL1        0.0624
     40 H          -3.2861   -5.1611   -8.5733 H       1  UNL1        0.0661
     41 H          -2.8695   -1.6099   -8.8452 H       1  UNL1        0.0654
     42 H          -1.3075    0.2884   -8.9396 H       1  UNL1        0.0619
     43 H           0.1600    0.7812   -7.0290 H       1  UNL1        0.0618
     44 H           0.0523   -0.5987   -4.9975 H       1  UNL1        0.0627
     45 H          -0.4719   -0.1963   -2.9351 H       1  UNL1        0.0744
     46 H          -1.5860   -0.1417   -4.3261 H       1  UNL1        0.0744
     47 H          -4.0544   -1.3149   -3.2405 H       1  UNL1        0.0249
     48 H          -4.7118    0.1195   -2.4166 H       1  UNL1        0.0249
     49 H          -3.9538    0.2827   -4.0188 H       1  UNL1        0.0249
@<TRIPOS>BOND
     1     1     2    1
     2     1    31    1
     3     1    32    1
     4     1    33    1
     5     2     3    2
     6     2     4   am
     7     4    28    1
     8     4     5    1
     9     5     6    1
    10     5    34    1
    11     5    35    1
    12     6     7    1
    13     6    36    1
    14     6    37    1
    15     7     8    1
    16     7    27    1
    17     8    26    1
    18     8     9    2
    19     9    10    1
    20    10    19   ar
    21    10    11   ar
    22    11    12   ar
    23    11    38    1
    24    12    13   ar
    25    12    39    1
    26    13    14    1
    27    13    18   ar
    28    14    15    1
    29    14    16    1
    30    14    17    1
    31    18    19   ar
    32    18    40    1
    33    19    20    1
    34    20    21    1
    35    21    26   ar
    36    21    22   ar
    37    22    23   ar
    38    22    41    1
    39    23    24   ar
    40    23    42    1
    41    24    25   ar
    42    24    43    1
    43    25    26   ar
    44    25    44    1
    45    27    28    1
    46    27    45    1
    47    27    46    1
    48    28    29    1
    49    28    30    1
    50    30    47    1
    51    30    48    1
    52    30    49    1
