@<TRIPOS>MOLECULE
ZINC000005814299
 54 56 0 0 0
SMALL
GASTEIGER

@<TRIPOS>ATOM
      1 C          -0.0184    1.5028    0.0103 C.3     1  UNL1       -0.0397
      2 C           0.0021   -0.0041    0.0020 C.ar    1  UNL1       -0.0504
      3 C           0.0057   -0.6887   -1.1989 C.ar    1  UNL1       -0.0585
      4 C           0.0245   -2.0709   -1.2065 C.ar    1  UNL1       -0.0570
      5 C           0.0400   -2.7685   -0.0132 C.ar    1  UNL1       -0.0316
      6 C           0.0600   -4.2753   -0.0215 C.3     1  UNL1        0.0460
      7 N           1.4475   -4.7453   -0.0315 N.3     1  UNL1       -0.1635
      8 C           2.1835   -4.8824    1.2278 C.3     1  UNL1        0.0971
      9 C           1.8847   -6.2264    1.8405 C.2     1  UNL1        0.2289
     10 O           1.1311   -6.9941    1.2805 O.2     1  UNL1       -0.2743
     11 N           2.4548   -6.5752    3.0108 N.am    1  UNL1       -0.3117
     12 C           2.1643   -7.8817    3.6065 C.3     1  UNL1        0.0379
     13 C           2.9330   -8.0249    4.9216 C.3     1  UNL1        0.0742
     14 H           3.9943   -7.8443    4.7510 H       1  UNL1        0.0611
     15 C           2.7288   -9.4434    5.4958 C.3     1  UNL1       -0.0231
     16 C           2.6015   -9.1673    7.0188 C.3     1  UNL1       -0.0271
     17 C           1.8805   -7.7959    7.0098 C.3     1  UNL1        0.0482
     18 O           2.4294   -7.0902    5.8831 O.3     1  UNL1       -0.3750
     19 S           2.1840   -5.1215   -1.4662 S.O2    1  UNL1        0.0616
     20 O           3.1329   -6.1386   -1.1755 O.2     1  UNL1       -0.1528
     21 O           1.1441   -5.2789   -2.4218 O.2     1  UNL1       -0.1528
     22 C           3.1081   -3.7066   -1.9649 C.ar    1  UNL1        0.1055
     23 C           2.5164   -2.7371   -2.7527 C.ar    1  UNL1       -0.0353
     24 C           3.2414   -1.6271   -3.1440 C.ar    1  UNL1       -0.0599
     25 C           4.5580   -1.4863   -2.7470 C.ar    1  UNL1       -0.0616
     26 C           5.1495   -2.4554   -1.9584 C.ar    1  UNL1       -0.0599
     27 C           4.4231   -3.5634   -1.5636 C.ar    1  UNL1       -0.0353
     28 C           0.0378   -2.0839    1.1877 C.ar    1  UNL1       -0.0570
     29 C           0.0229   -0.7016    1.1953 C.ar    1  UNL1       -0.0585
     30 H           1.0042    1.8801    0.0026 H       1  UNL1        0.0278
     31 H          -0.5455    1.8639   -0.8728 H       1  UNL1        0.0278
     32 H          -0.5286    1.8543    0.9071 H       1  UNL1        0.0278
     33 H          -0.0064   -0.1436   -2.1312 H       1  UNL1        0.0620
     34 H           0.0266   -2.6057   -2.1448 H       1  UNL1        0.0621
     35 H          -0.4442   -4.6502    0.8692 H       1  UNL1        0.0493
     36 H          -0.4538   -4.6406   -0.9107 H       1  UNL1        0.0493
     37 H           3.2531   -4.8011    1.0342 H       1  UNL1        0.0539
     38 H           1.8777   -4.0936    1.9151 H       1  UNL1        0.0539
     39 H           3.0575   -5.9612    3.4588 H       1  UNL1        0.1488
     40 H           1.0947   -7.9630    3.8001 H       1  UNL1        0.0487
     41 H           2.4701   -8.6705    2.9192 H       1  UNL1        0.0487
     42 H           1.8156   -9.8923    5.1052 H       1  UNL1        0.0291
     43 H           3.5927  -10.0745    5.2868 H       1  UNL1        0.0291
     44 H           1.9921   -9.9283    7.5064 H       1  UNL1        0.0288
     45 H           3.5826   -9.0924    7.4878 H       1  UNL1        0.0288
     46 H           0.8066   -7.9338    6.8841 H       1  UNL1        0.0560
     47 H           2.0877   -7.2535    7.9323 H       1  UNL1        0.0560
     48 H           1.4877   -2.8470   -3.0629 H       1  UNL1        0.0637
     49 H           2.7793   -0.8699   -3.7601 H       1  UNL1        0.0618
     50 H           5.1246   -0.6194   -3.0532 H       1  UNL1        0.0618
     51 H           6.1782   -2.3457   -1.6485 H       1  UNL1        0.0618
     52 H           4.8852   -4.3205   -0.9474 H       1  UNL1        0.0637
     53 H           0.0503   -2.6289    2.1200 H       1  UNL1        0.0621
     54 H           0.0211   -0.1667    2.1335 H       1  UNL1        0.0620
@<TRIPOS>BOND
     1     1     2    1
     2     1    30    1
     3     1    31    1
     4     1    32    1
     5     2    29   ar
     6     2     3   ar
     7     3     4   ar
     8     3    33    1
     9     4     5   ar
    10     4    34    1
    11     5     6    1
    12     5    28   ar
    13     6     7    1
    14     6    35    1
    15     6    36    1
    16     7     8    1
    17    19     7    1
    18     8     9    1
    19     8    37    1
    20     8    38    1
    21     9    10    2
    22     9    11   am
    23    11    12    1
    24    11    39    1
    25    12    13    1
    26    12    40    1
    27    12    41    1
    28    13    14    1
    29    13    18    1
    30    13    15    1
    31    15    16    1
    32    15    42    1
    33    15    43    1
    34    16    17    1
    35    16    44    1
    36    16    45    1
    37    17    18    1
    38    17    46    1
    39    17    47    1
    40    19    20    2
    41    19    21    2
    42    19    22    1
    43    22    27   ar
    44    22    23   ar
    45    23    24   ar
    46    23    48    1
    47    24    25   ar
    48    24    49    1
    49    25    26   ar
    50    25    50    1
    51    26    27   ar
    52    26    51    1
    53    27    52    1
    54    28    29   ar
    55    28    53    1
    56    29    54    1
