@<TRIPOS>MOLECULE
ZINC000408617380
 50 51 0 0 0
SMALL
GASTEIGER

@<TRIPOS>ATOM
      1 C          -0.0173    1.4248    0.0099 C.3     1  UNL1        0.0365
      2 O           0.0021   -0.0041    0.0020 O.3     1  UNL1       -0.3812
      3 C           0.6734   -0.5824    1.1231 C.3     1  UNL1        0.0654
      4 C           0.6327   -2.1077    1.0107 C.3     1  UNL1        0.0437
      5 H           1.0656   -2.5499    1.9080 H       1  UNL1        0.0518
      6 C          -0.8185   -2.5697    0.8637 C.3     1  UNL1       -0.0445
      7 N           1.4013   -2.5316   -0.1622 N.am    1  UNL1       -0.3094
      8 C           1.9353   -3.7683   -0.2071 C.2     1  UNL1        0.2291
      9 O           1.7795   -4.5302    0.7236 O.2     1  UNL1       -0.2743
     10 C           2.7259   -4.2043   -1.4136 C.3     1  UNL1        0.0971
     11 N           3.1956   -5.5783   -1.2192 N.3     1  UNL1       -0.1635
     12 C           2.3234   -6.7055   -1.5582 C.3     1  UNL1        0.0460
     13 C           2.4574   -7.0208   -3.0258 C.ar    1  UNL1       -0.0316
     14 C           1.6326   -6.3986   -3.9443 C.ar    1  UNL1       -0.0559
     15 C           1.7551   -6.6873   -5.2903 C.ar    1  UNL1       -0.0431
     16 C           2.7034   -7.5992   -5.7185 C.ar    1  UNL1        0.0410
     17 CL          2.8582   -7.9620   -7.4091 Cl      1  UNL1       -0.0835
     18 C           3.5286   -8.2216   -4.7987 C.ar    1  UNL1       -0.0431
     19 C           3.4090   -7.9278   -3.4535 C.ar    1  UNL1       -0.0559
     20 S           4.7125   -5.8573   -0.6163 S.O2    1  UNL1        0.0616
     21 O           5.1439   -7.0923   -1.1711 O.2     1  UNL1       -0.1528
     22 O           5.4343   -4.6427   -0.7681 O.2     1  UNL1       -0.1528
     23 C           4.5440   -6.1225    1.1175 C.ar    1  UNL1        0.1055
     24 C           4.6113   -5.0525    1.9901 C.ar    1  UNL1       -0.0353
     25 C           4.4791   -5.2606    3.3503 C.ar    1  UNL1       -0.0599
     26 C           4.2791   -6.5386    3.8378 C.ar    1  UNL1       -0.0616
     27 C           4.2109   -7.6084    2.9651 C.ar    1  UNL1       -0.0599
     28 C           4.3388   -7.3998    1.6046 C.ar    1  UNL1       -0.0353
     29 H           1.0053    1.8021    0.0021 H       1  UNL1        0.0523
     30 H          -0.5445    1.7859   -0.8732 H       1  UNL1        0.0523
     31 H          -0.5275    1.7763    0.9067 H       1  UNL1        0.0523
     32 H           1.7103   -0.2468    1.1385 H       1  UNL1        0.0578
     33 H           0.1775   -0.2725    2.0430 H       1  UNL1        0.0578
     34 H          -1.2514   -2.1276   -0.0336 H       1  UNL1        0.0248
     35 H          -0.8475   -3.6564    0.7836 H       1  UNL1        0.0248
     36 H          -1.3904   -2.2544    1.7364 H       1  UNL1        0.0248
     37 H           1.5259   -1.9223   -0.9066 H       1  UNL1        0.1491
     38 H           2.0921   -4.1589   -2.2992 H       1  UNL1        0.0539
     39 H           3.5822   -3.5429   -1.5454 H       1  UNL1        0.0539
     40 H           2.6120   -7.5775   -0.9714 H       1  UNL1        0.0493
     41 H           1.2888   -6.4440   -1.3358 H       1  UNL1        0.0493
     42 H           0.8922   -5.6870   -3.6099 H       1  UNL1        0.0621
     43 H           1.1104   -6.2015   -6.0078 H       1  UNL1        0.0632
     44 H           4.2688   -8.9337   -5.1323 H       1  UNL1        0.0632
     45 H           4.0533   -8.4133   -2.7355 H       1  UNL1        0.0621
     46 H           4.7676   -4.0541    1.6092 H       1  UNL1        0.0637
     47 H           4.5325   -4.4247    4.0321 H       1  UNL1        0.0618
     48 H           4.1766   -6.7012    4.9006 H       1  UNL1        0.0618
     49 H           4.0550   -8.6069    3.3460 H       1  UNL1        0.0618
     50 H           4.2855   -8.2357    0.9227 H       1  UNL1        0.0637
@<TRIPOS>BOND
     1     1     2    1
     2     1    29    1
     3     1    30    1
     4     1    31    1
     5     2     3    1
     6     3     4    1
     7     3    32    1
     8     3    33    1
     9     4     5    1
    10     4     6    1
    11     4     7    1
    12     6    34    1
    13     6    35    1
    14     6    36    1
    15     7     8   am
    16     7    37    1
    17     8     9    2
    18     8    10    1
    19    10    11    1
    20    10    38    1
    21    10    39    1
    22    11    12    1
    23    20    11    1
    24    12    13    1
    25    12    40    1
    26    12    41    1
    27    13    19   ar
    28    13    14   ar
    29    14    15   ar
    30    14    42    1
    31    15    16   ar
    32    15    43    1
    33    16    17    1
    34    16    18   ar
    35    18    19   ar
    36    18    44    1
    37    19    45    1
    38    20    21    2
    39    20    22    2
    40    20    23    1
    41    23    28   ar
    42    23    24   ar
    43    24    25   ar
    44    24    46    1
    45    25    26   ar
    46    25    47    1
    47    26    27   ar
    48    26    48    1
    49    27    28   ar
    50    27    49    1
    51    28    50    1
