@<TRIPOS>MOLECULE
ZINC000022227429
 58 60 0 0 0
SMALL
GASTEIGER

@<TRIPOS>ATOM
      1 C          -0.0187    1.5258    0.0104 C.3     1  UNL1       -0.0507
      2 C           0.0021   -0.0041    0.0020 C.3     1  UNL1        0.0177
      3 N          -1.3723   -0.5112    0.0124 N.3     1  UNL1       -0.1771
      4 C          -2.1099   -0.6542   -1.2453 C.3     1  UNL1        0.0177
      5 C          -1.7727   -2.0031   -1.8836 C.3     1  UNL1       -0.0507
      6 S          -2.0922   -0.9227    1.4458 S.O2    1  UNL1        0.0608
      7 O          -3.1196   -1.8512    1.1269 O.2     1  UNL1       -0.1528
      8 O          -1.0393   -1.2108    2.3555 O.2     1  UNL1       -0.1528
      9 C          -2.8978    0.5199    2.0580 C.ar    1  UNL1        0.1055
     10 C          -2.2156    1.3954    2.8820 C.ar    1  UNL1       -0.0351
     11 C          -2.8476    2.5271    3.3622 C.ar    1  UNL1       -0.0567
     12 C          -4.1616    2.7836    3.0181 C.ar    1  UNL1       -0.0458
     13 C          -4.8508    4.0171    3.5421 C.3     1  UNL1       -0.0121
     14 C          -4.6371    5.1747    2.5647 C.3     1  UNL1        0.0156
     15 N          -5.3071    6.3739    3.0740 N.am    1  UNL1       -0.3147
     16 C          -5.2536    7.5243    2.3740 C.2     1  UNL1        0.2174
     17 O          -4.6509    7.5669    1.3224 O.2     1  UNL1       -0.2755
     18 C          -5.9428    8.7579    2.8979 C.3     1  UNL1        0.0492
     19 C          -5.7323    9.8980    1.9352 C.ar    1  UNL1       -0.0349
     20 C          -4.6346   10.7259    2.0758 C.ar    1  UNL1       -0.0544
     21 C          -4.4393   11.7743    1.1961 C.ar    1  UNL1       -0.0160
     22 C          -5.3445   11.9977    0.1697 C.ar    1  UNL1        0.1621
     23 O          -5.1435   13.0387   -0.6837 O.3     1  UNL1       -0.4849
     24 C          -5.8663   13.0067   -1.9192 C.3     1  UNL1        0.1237
     25 C          -7.3257   12.6435   -1.6132 C.3     1  UNL1        0.1237
     26 O          -7.3446   11.3609   -0.9773 O.3     1  UNL1       -0.4849
     27 C          -6.4465   11.1626    0.0261 C.ar    1  UNL1        0.1623
     28 C          -6.6345   10.1106    0.9097 C.ar    1  UNL1       -0.0126
     29 C          -4.8434    1.9088    2.1930 C.ar    1  UNL1       -0.0567
     30 C          -4.2102    0.7790    1.7096 C.ar    1  UNL1       -0.0351
     31 H           1.0039    1.9031    0.0027 H       1  UNL1        0.0243
     32 H          -0.5459    1.8868   -0.8726 H       1  UNL1        0.0243
     33 H          -0.5289    1.8773    0.9072 H       1  UNL1        0.0243
     34 H           0.5123   -0.3556   -0.8948 H       1  UNL1        0.0441
     35 H           0.5293   -0.3651    0.8851 H       1  UNL1        0.0441
     36 H          -3.1804   -0.6037   -1.0465 H       1  UNL1        0.0441
     37 H          -1.8283    0.1500   -1.9251 H       1  UNL1        0.0441
     38 H          -2.3215   -2.1096   -2.8194 H       1  UNL1        0.0243
     39 H          -0.7022   -2.0536   -2.0825 H       1  UNL1        0.0243
     40 H          -2.0544   -2.8073   -1.2038 H       1  UNL1        0.0243
     41 H          -1.1890    1.1950    3.1509 H       1  UNL1        0.0637
     42 H          -2.3149    3.2108    4.0066 H       1  UNL1        0.0621
     43 H          -5.9180    3.8210    3.6452 H       1  UNL1        0.0328
     44 H          -4.4342    4.2808    4.5142 H       1  UNL1        0.0328
     45 H          -3.5699    5.3709    2.4615 H       1  UNL1        0.0465
     46 H          -5.0537    4.9110    1.5925 H       1  UNL1        0.0465
     47 H          -5.7891    6.3398    3.9151 H       1  UNL1        0.1487
     48 H          -7.0100    8.5617    3.0011 H       1  UNL1        0.0407
     49 H          -5.5262    9.0216    3.8701 H       1  UNL1        0.0407
     50 H          -3.9284   10.5538    2.8746 H       1  UNL1        0.0622
     51 H          -3.5810   12.4201    1.3086 H       1  UNL1        0.0655
     52 H          -5.8234   13.9861   -2.3956 H       1  UNL1        0.0731
     53 H          -5.4317   12.2566   -2.5800 H       1  UNL1        0.0731
     54 H          -7.7585   13.3903   -0.9476 H       1  UNL1        0.0731
     55 H          -7.8965   12.6023   -2.5409 H       1  UNL1        0.0731
     56 H          -7.4889    9.4593    0.7990 H       1  UNL1        0.0658
     57 H          -5.8699    2.1094    1.9238 H       1  UNL1        0.0621
     58 H          -4.7428    0.0956    1.0650 H       1  UNL1        0.0637
@<TRIPOS>BOND
     1     1     2    1
     2     1    31    1
     3     1    32    1
     4     1    33    1
     5     2     3    1
     6     2    34    1
     7     2    35    1
     8     3     4    1
     9     6     3    1
    10     4     5    1
    11     4    36    1
    12     4    37    1
    13     5    38    1
    14     5    39    1
    15     5    40    1
    16     6     7    2
    17     6     8    2
    18     6     9    1
    19     9    30   ar
    20     9    10   ar
    21    10    11   ar
    22    10    41    1
    23    11    12   ar
    24    11    42    1
    25    12    13    1
    26    12    29   ar
    27    13    14    1
    28    13    43    1
    29    13    44    1
    30    14    15    1
    31    14    45    1
    32    14    46    1
    33    15    16   am
    34    15    47    1
    35    16    17    2
    36    16    18    1
    37    18    19    1
    38    18    48    1
    39    18    49    1
    40    19    28   ar
    41    19    20   ar
    42    20    21   ar
    43    20    50    1
    44    21    22   ar
    45    21    51    1
    46    22    27   ar
    47    22    23    1
    48    23    24    1
    49    24    25    1
    50    24    52    1
    51    24    53    1
    52    25    26    1
    53    25    54    1
    54    25    55    1
    55    26    27    1
    56    27    28   ar
    57    28    56    1
    58    29    30   ar
    59    29    57    1
    60    30    58    1
