@<TRIPOS>MOLECULE
ZINC000027100741
 57 60 0 0 0
SMALL
GASTEIGER

@<TRIPOS>ATOM
      1 C          -0.1277   -6.9193   -2.0698 C.3     1  UNL1       -0.0397
      2 C          -0.3689   -7.0965   -0.5929 C.ar    1  UNL1       -0.0501
      3 C          -0.8067   -8.3134   -0.1053 C.ar    1  UNL1       -0.0588
      4 C          -1.0280   -8.4760    1.2498 C.ar    1  UNL1       -0.0612
      5 C          -0.8111   -7.4217    2.1168 C.ar    1  UNL1       -0.0571
      6 C          -0.3723   -6.2047    1.6292 C.ar    1  UNL1       -0.0301
      7 C          -0.1362   -5.0550    2.5745 C.3     1  UNL1        0.0369
      8 N           1.2501   -5.0881    3.0470 N.am    1  UNL1       -0.3099
      9 C           1.6912   -4.1496    3.9078 C.2     1  UNL1        0.2325
     10 O           0.9405   -3.2776    4.2913 O.2     1  UNL1       -0.2740
     11 C           3.1173   -4.1836    4.3939 C.3     1  UNL1        0.1121
     12 H           3.6952   -4.8853    3.7923 H       1  UNL1        0.0579
     13 C           3.7313   -2.7882    4.2927 C.3     1  UNL1       -0.0016
     14 C           5.0303   -2.7179    5.0514 C.ar    1  UNL1       -0.0409
     15 C           5.9131   -1.6961    4.7243 C.ar    1  UNL1       -0.0582
     16 C           7.1161   -1.5689    5.3873 C.ar    1  UNL1       -0.0615
     17 C           7.4480   -2.4635    6.3873 C.ar    1  UNL1       -0.0614
     18 C           6.5747   -3.4815    6.7120 C.ar    1  UNL1       -0.0570
     19 C           5.3666   -3.6139    6.0417 C.ar    1  UNL1       -0.0284
     20 C           4.4702   -4.7637    6.4276 C.3     1  UNL1        0.0466
     21 N           3.1520   -4.5933    5.8076 N.3     1  UNL1       -0.1601
     22 S           1.7580   -4.8483    6.6643 S.O2    1  UNL1        0.0618
     23 O           0.7242   -5.0240    5.7054 O.2     1  UNL1       -0.1528
     24 O           2.0689   -5.8153    7.6580 O.2     1  UNL1       -0.1528
     25 C           1.3921   -3.3533    7.5221 C.ar    1  UNL1        0.1055
     26 C           1.8974   -3.1434    8.7916 C.ar    1  UNL1       -0.0348
     27 C           1.6104   -1.9705    9.4645 C.ar    1  UNL1       -0.0483
     28 C           0.8185   -1.0073    8.8678 C.ar    1  UNL1        0.0549
     29 C           0.5052    0.2711    9.6016 C.3     1  UNL1        0.4174
     30 F           1.4827    1.2282    9.3092 F       1  UNL1       -0.1659
     31 F          -0.7475    0.7456    9.1980 F       1  UNL1       -0.1659
     32 F           0.4895    0.0264   10.9790 F       1  UNL1       -0.1659
     33 C           0.3144   -1.2166    7.5978 C.ar    1  UNL1       -0.0483
     34 C           0.6046   -2.3878    6.9233 C.ar    1  UNL1       -0.0348
     35 C          -0.1469   -6.0434    0.2751 C.ar    1  UNL1       -0.0542
     36 H           0.9039   -7.1825   -2.3037 H       1  UNL1        0.0278
     37 H          -0.8035   -7.5667   -2.6286 H       1  UNL1        0.0278
     38 H          -0.3090   -5.8804   -2.3455 H       1  UNL1        0.0278
     39 H          -0.9762   -9.1372   -0.7828 H       1  UNL1        0.0620
     40 H          -1.3708   -9.4267    1.6307 H       1  UNL1        0.0618
     41 H          -0.9846   -7.5485    3.1752 H       1  UNL1        0.0621
     42 H          -0.3209   -4.1143    2.0558 H       1  UNL1        0.0512
     43 H          -0.8122   -5.1396    3.4254 H       1  UNL1        0.0512
     44 H           1.8505   -5.7855    2.7403 H       1  UNL1        0.1491
     45 H           3.9152   -2.5526    3.2445 H       1  UNL1        0.0334
     46 H           3.0346   -2.0591    4.7064 H       1  UNL1        0.0334
     47 H           5.6553   -0.9955    3.9438 H       1  UNL1        0.0620
     48 H           7.7970   -0.7725    5.1254 H       1  UNL1        0.0618
     49 H           8.3870   -2.3665    6.9120 H       1  UNL1        0.0618
     50 H           6.8332   -4.1804    7.4938 H       1  UNL1        0.0621
     51 H           4.9125   -5.6992    6.0851 H       1  UNL1        0.0493
     52 H           4.3610   -4.7904    7.5118 H       1  UNL1        0.0493
     53 H           2.5160   -3.8959    9.2578 H       1  UNL1        0.0637
     54 H           2.0045   -1.8069   10.4566 H       1  UNL1        0.0624
     55 H          -0.3040   -0.4639    7.1314 H       1  UNL1        0.0624
     56 H           0.2107   -2.5513    5.9310 H       1  UNL1        0.0637
     57 H           0.1958   -5.0927   -0.1059 H       1  UNL1        0.0623
@<TRIPOS>BOND
     1     1     2    1
     2     1    36    1
     3     1    37    1
     4     1    38    1
     5     2    35   ar
     6     2     3   ar
     7     3     4   ar
     8     3    39    1
     9     4     5   ar
    10     4    40    1
    11     5     6   ar
    12     5    41    1
    13     6     7    1
    14     6    35   ar
    15     7     8    1
    16     7    42    1
    17     7    43    1
    18     8     9   am
    19     8    44    1
    20     9    10    2
    21     9    11    1
    22    11    12    1
    23    11    21    1
    24    11    13    1
    25    13    14    1
    26    13    45    1
    27    13    46    1
    28    14    19   ar
    29    14    15   ar
    30    15    16   ar
    31    15    47    1
    32    16    17   ar
    33    16    48    1
    34    17    18   ar
    35    17    49    1
    36    18    19   ar
    37    18    50    1
    38    19    20    1
    39    20    21    1
    40    20    51    1
    41    20    52    1
    42    22    21    1
    43    22    23    2
    44    22    24    2
    45    22    25    1
    46    25    34   ar
    47    25    26   ar
    48    26    27   ar
    49    26    53    1
    50    27    28   ar
    51    27    54    1
    52    28    29    1
    53    28    33   ar
    54    29    30    1
    55    29    31    1
    56    29    32    1
    57    33    34   ar
    58    33    55    1
    59    34    56    1
    60    35    57    1
