@<TRIPOS>MOLECULE
ZINC000004409238
 59 61 0 0 0
SMALL
GASTEIGER

@<TRIPOS>ATOM
      1 C           0.0028    1.5004   -0.0099 C.3     1  UNL1        0.0086
      2 N           0.0285    0.0356   -0.0119 N.3     1  UNL1       -0.1827
      3 C           1.3098   -0.6745   -0.0303 C.3     1  UNL1        0.0086
      4 S          -1.3907   -0.8175    0.0067 S.O2    1  UNL1        0.0604
      5 O          -1.0834   -2.0959    0.5456 O.2     1  UNL1       -0.1529
      6 O          -2.3708    0.0464    0.5657 O.2     1  UNL1       -0.1529
      7 C          -1.8609   -1.0843   -1.6703 C.ar    1  UNL1        0.1056
      8 C          -2.6573   -0.1601   -2.3202 C.ar    1  UNL1       -0.0335
      9 C          -3.0262   -0.3694   -3.6359 C.ar    1  UNL1       -0.0335
     10 C          -2.5983   -1.5027   -4.3018 C.ar    1  UNL1        0.1056
     11 S          -3.0690   -1.7698   -5.9786 S.O2    1  UNL1        0.0614
     12 O          -2.9813   -3.1705   -6.2017 O.2     1  UNL1       -0.1528
     13 O          -4.2602   -1.0230   -6.1848 O.2     1  UNL1       -0.1528
     14 N          -1.9082   -1.0711   -6.9308 N.3     1  UNL1       -0.1653
     15 C          -0.7456   -1.8520   -7.3606 C.3     1  UNL1        0.0972
     16 C          -1.0068   -2.4311   -8.7272 C.2     1  UNL1        0.2330
     17 O          -2.0603   -2.2129   -9.2870 O.2     1  UNL1       -0.2740
     18 N          -0.0696   -3.1914   -9.3272 N.am    1  UNL1       -0.2844
     19 C          -0.3481   -3.8085  -10.5517 C.ar    1  UNL1        0.0334
     20 C           0.1744   -5.0641  -10.8329 C.ar    1  UNL1       -0.0405
     21 C          -0.1024   -5.6705  -12.0425 C.ar    1  UNL1       -0.0600
     22 C          -0.8985   -5.0286  -12.9733 C.ar    1  UNL1       -0.0616
     23 C          -1.4200   -3.7781  -12.6965 C.ar    1  UNL1       -0.0600
     24 C          -1.1524   -3.1692  -11.4861 C.ar    1  UNL1       -0.0405
     25 C          -2.0439    0.3281   -7.3434 C.3     1  UNL1        0.0473
     26 C          -1.2687    1.2230   -6.3744 C.3     1  UNL1        0.0731
     27 H          -1.5951    1.0311   -5.3523 H       1  UNL1        0.0609
     28 C          -1.5043    2.7069   -6.7295 C.3     1  UNL1       -0.0233
     29 C          -0.0989    3.3274   -6.5018 C.3     1  UNL1       -0.0271
     30 C           0.8147    2.1534   -6.9352 C.3     1  UNL1        0.0482
     31 O           0.1354    0.9654   -6.4926 O.3     1  UNL1       -0.3752
     32 C          -1.8008   -2.4263   -3.6522 C.ar    1  UNL1       -0.0335
     33 C          -1.4287   -2.2150   -2.3377 C.ar    1  UNL1       -0.0335
     34 H           1.0238    1.8817   -0.0235 H       1  UNL1        0.0408
     35 H          -0.5296    1.8556   -0.8922 H       1  UNL1        0.0408
     36 H          -0.5050    1.8536    0.8876 H       1  UNL1        0.0408
     37 H           1.6417   -0.8517    0.9927 H       1  UNL1        0.0408
     38 H           1.1891   -1.6285   -0.5436 H       1  UNL1        0.0408
     39 H           2.0518   -0.0716   -0.5538 H       1  UNL1        0.0408
     40 H          -2.9917    0.7254   -1.8000 H       1  UNL1        0.0638
     41 H          -3.6490    0.3523   -4.1435 H       1  UNL1        0.0638
     42 H           0.1312   -1.2058   -7.4013 H       1  UNL1        0.0539
     43 H          -0.5686   -2.6604   -6.6512 H       1  UNL1        0.0539
     44 H           0.7980   -3.3108   -8.9102 H       1  UNL1        0.1548
     45 H           0.7968   -5.5656  -10.1067 H       1  UNL1        0.0636
     46 H           0.3037   -6.6469  -12.2618 H       1  UNL1        0.0618
     47 H          -1.1132   -5.5048  -13.9186 H       1  UNL1        0.0618
     48 H          -2.0408   -3.2791  -13.4259 H       1  UNL1        0.0618
     49 H          -1.5599   -2.1925  -11.2705 H       1  UNL1        0.0636
     50 H          -1.6441    0.4504   -8.3500 H       1  UNL1        0.0469
     51 H          -3.0971    0.6091   -7.3341 H       1  UNL1        0.0469
     52 H          -1.8111    2.8128   -7.7701 H       1  UNL1        0.0291
     53 H          -2.2389    3.1541   -6.0599 H       1  UNL1        0.0291
     54 H           0.0534    4.1992   -7.1381 H       1  UNL1        0.0288
     55 H           0.0546    3.5778   -5.4521 H       1  UNL1        0.0288
     56 H           0.9289    2.1431   -8.0192 H       1  UNL1        0.0560
     57 H           1.7885    2.2336   -6.4522 H       1  UNL1        0.0560
     58 H          -1.4661   -3.3115   -4.1726 H       1  UNL1        0.0638
     59 H          -0.8056   -2.9366   -1.8303 H       1  UNL1        0.0638
@<TRIPOS>BOND
     1     1     2    1
     2     1    34    1
     3     1    35    1
     4     1    36    1
     5     2     3    1
     6     4     2    1
     7     3    37    1
     8     3    38    1
     9     3    39    1
    10     4     5    2
    11     4     6    2
    12     4     7    1
    13     7    33   ar
    14     7     8   ar
    15     8     9   ar
    16     8    40    1
    17     9    10   ar
    18     9    41    1
    19    10    11    1
    20    10    32   ar
    21    11    12    2
    22    11    13    2
    23    11    14    1
    24    14    15    1
    25    14    25    1
    26    15    16    1
    27    15    42    1
    28    15    43    1
    29    16    17    2
    30    16    18   am
    31    18    19    1
    32    18    44    1
    33    19    24   ar
    34    19    20   ar
    35    20    21   ar
    36    20    45    1
    37    21    22   ar
    38    21    46    1
    39    22    23   ar
    40    22    47    1
    41    23    24   ar
    42    23    48    1
    43    24    49    1
    44    25    26    1
    45    25    50    1
    46    25    51    1
    47    26    27    1
    48    26    31    1
    49    26    28    1
    50    28    29    1
    51    28    52    1
    52    28    53    1
    53    29    30    1
    54    29    54    1
    55    29    55    1
    56    30    31    1
    57    30    56    1
    58    30    57    1
    59    32    33   ar
    60    32    58    1
    61    33    59    1
