@<TRIPOS>MOLECULE
ZINC000028207179
 43 43 0 0 0
SMALL
GASTEIGER

@<TRIPOS>ATOM
      1 C          -0.0187    1.5258    0.0104 C.3     1  UNL1       -0.0636
      2 C           0.0021   -0.0041    0.0020 C.3     1  UNL1       -0.0376
      3 C          -1.4333   -0.5336    0.0129 C.3     1  UNL1        0.0202
      4 H          -1.9862   -0.1019   -0.8214 H       1  UNL1        0.0495
      5 C          -1.4157   -2.0577   -0.1212 C.3     1  UNL1       -0.0466
      6 N          -2.0815   -0.1618    1.2729 N.am    1  UNL1       -0.3099
      7 C          -3.4235   -0.0535    1.3341 C.2     1  UNL1        0.2509
      8 O          -4.0945   -0.2639    0.3460 O.2     1  UNL1       -0.2721
      9 C          -4.0903    0.3291    2.6303 C.3     1  UNL1        0.1651
     10 O          -5.5059    0.3776    2.4416 O.3     1  UNL1       -0.4828
     11 C          -6.2613    0.7100    3.5213 C.ar    1  UNL1        0.1213
     12 C          -5.6521    0.9895    4.7360 C.ar    1  UNL1       -0.0181
     13 C          -6.4221    1.3276    5.8319 C.ar    1  UNL1       -0.0319
     14 C          -7.7989    1.3872    5.7191 C.ar    1  UNL1        0.1057
     15 S          -8.7782    1.8182    7.1190 S.O2    1  UNL1        0.0604
     16 O         -10.0713    1.2768    6.8862 O.2     1  UNL1       -0.1529
     17 O          -7.9993    1.5048    8.2655 O.2     1  UNL1       -0.1529
     18 N          -8.9518    3.4651    7.1075 N.3     1  UNL1       -0.1827
     19 C         -10.0803    4.0778    6.4023 C.3     1  UNL1        0.0086
     20 C          -7.9768    4.3092    7.8025 C.3     1  UNL1        0.0086
     21 C          -8.4084    1.1095    4.5095 C.ar    1  UNL1       -0.0319
     22 C          -7.6425    0.7760    3.4093 C.ar    1  UNL1       -0.0181
     23 H           1.0039    1.9031    0.0027 H       1  UNL1        0.0230
     24 H          -0.5459    1.8868   -0.8726 H       1  UNL1        0.0230
     25 H          -0.5289    1.8773    0.9072 H       1  UNL1        0.0230
     26 H           0.5123   -0.3556   -0.8948 H       1  UNL1        0.0280
     27 H           0.5293   -0.3651    0.8851 H       1  UNL1        0.0280
     28 H          -0.9334   -2.3344   -1.0587 H       1  UNL1        0.0247
     29 H          -0.8628   -2.4894    0.7131 H       1  UNL1        0.0247
     30 H          -2.4383   -2.4349   -0.1135 H       1  UNL1        0.0247
     31 H          -1.5448    0.0065    2.0632 H       1  UNL1        0.1491
     32 H          -3.8507   -0.4106    3.3943 H       1  UNL1        0.0795
     33 H          -3.7323    1.3084    2.9478 H       1  UNL1        0.0795
     34 H          -4.5768    0.9424    4.8248 H       1  UNL1        0.0655
     35 H          -5.9484    1.5453    6.7777 H       1  UNL1        0.0638
     36 H         -10.9248    4.1762    7.0844 H       1  UNL1        0.0408
     37 H          -9.7898    5.0636    6.0391 H       1  UNL1        0.0408
     38 H         -10.3659    3.4494    5.5587 H       1  UNL1        0.0408
     39 H          -7.1704    4.5721    7.1179 H       1  UNL1        0.0408
     40 H          -8.4670    5.2177    8.1525 H       1  UNL1        0.0408
     41 H          -7.5677    3.7660    8.6543 H       1  UNL1        0.0408
     42 H          -9.4840    1.1570    4.4239 H       1  UNL1        0.0638
     43 H          -8.1191    0.5592    2.4647 H       1  UNL1        0.0655
@<TRIPOS>BOND
     1     1     2    1
     2     1    23    1
     3     1    24    1
     4     1    25    1
     5     2     3    1
     6     2    26    1
     7     2    27    1
     8     3     4    1
     9     3     5    1
    10     3     6    1
    11     5    28    1
    12     5    29    1
    13     5    30    1
    14     6     7   am
    15     6    31    1
    16     7     8    2
    17     7     9    1
    18     9    10    1
    19     9    32    1
    20     9    33    1
    21    10    11    1
    22    11    22   ar
    23    11    12   ar
    24    12    13   ar
    25    12    34    1
    26    13    14   ar
    27    13    35    1
    28    14    15    1
    29    14    21   ar
    30    15    16    2
    31    15    17    2
    32    15    18    1
    33    18    19    1
    34    18    20    1
    35    19    36    1
    36    19    37    1
    37    19    38    1
    38    20    39    1
    39    20    40    1
    40    20    41    1
    41    21    22   ar
    42    21    42    1
    43    22    43    1
