@<TRIPOS>MOLECULE
ZINC000004653831
 37 38 0 0 0
SMALL
GASTEIGER

@<TRIPOS>ATOM
      1 C           1.6112    1.5750    0.7916 C.3     1  UNL1       -0.0652
      2 C           1.4850    0.0510    0.7441 C.3     1  UNL1       -0.0545
      3 C           1.7884   -0.4420   -0.6722 C.3     1  UNL1       -0.0369
      4 C           1.6622   -1.9660   -0.7197 C.3     1  UNL1        0.0239
      5 N           1.9527   -2.4380   -2.0758 N.am    1  UNL1       -0.2226
      6 C           1.0319   -2.5778   -3.0363 C.2     1  UNL1        0.3107
      7 O          -0.1475   -2.3273   -2.8832 O.2     1  UNL1       -0.2521
      8 N           1.5573   -3.0267   -4.1905 N.am    1  UNL1       -0.2632
      9 C           3.0010   -3.2023   -3.9561 C.3     1  UNL1        0.2776
     10 N           3.3861   -4.6039   -4.1390 N.am    1  UNL1       -0.2796
     11 C           4.6242   -5.0127   -3.7975 C.2     1  UNL1        0.2182
     12 O           5.3915   -4.2408   -3.2624 O.2     1  UNL1       -0.2754
     13 C           5.0551   -6.4287   -4.0808 C.3     1  UNL1        0.0357
     14 C           6.1307   -6.6397   -5.1482 C.3     1  UNL1       -0.0412
     15 C           6.4726   -6.8315   -3.6693 C.3     1  UNL1       -0.0412
     16 C           3.8114   -2.2974   -4.8863 C.3     1  UNL1        0.4365
     17 F           3.3788   -0.9746   -4.7433 F       1  UNL1       -0.1662
     18 F           5.1678   -2.3828   -4.5547 F       1  UNL1       -0.1662
     19 F           3.6285   -2.7071   -6.2113 F       1  UNL1       -0.1662
     20 C           3.1814   -2.7794   -2.5117 C.2     1  UNL1        0.2742
     21 O           4.2150   -2.7583   -1.8785 O.2     1  UNL1       -0.2706
     22 H           2.6252    1.8645    0.5156 H       1  UNL1        0.0230
     23 H           0.9032    2.0202    0.0926 H       1  UNL1        0.0230
     24 H           1.3951    1.9262    1.8006 H       1  UNL1        0.0230
     25 H           2.1930   -0.3942    1.4432 H       1  UNL1        0.0263
     26 H           0.4711   -0.2384    1.0202 H       1  UNL1        0.0263
     27 H           1.0804    0.0032   -1.3713 H       1  UNL1        0.0280
     28 H           2.8024   -0.1525   -0.9482 H       1  UNL1        0.0280
     29 H           2.3702   -2.4112   -0.0206 H       1  UNL1        0.0470
     30 H           0.6483   -2.2554   -0.4437 H       1  UNL1        0.0470
     31 H           1.0787   -3.2012   -5.0160 H       1  UNL1        0.1530
     32 H           2.7500   -5.2378   -4.5058 H       1  UNL1        0.1515
     33 H           4.2732   -7.1836   -3.9975 H       1  UNL1        0.0394
     34 H           6.0565   -7.5336   -5.7676 H       1  UNL1        0.0273
     35 H           6.5266   -5.7544   -5.6456 H       1  UNL1        0.0273
     36 H           7.0935   -6.0723   -3.1937 H       1  UNL1        0.0273
     37 H           6.6233   -7.8515   -3.3157 H       1  UNL1        0.0273
@<TRIPOS>BOND
     1     1     2    1
     2     1    22    1
     3     1    23    1
     4     1    24    1
     5     2     3    1
     6     2    25    1
     7     2    26    1
     8     3     4    1
     9     3    27    1
    10     3    28    1
    11     4     5    1
    12     4    29    1
    13     4    30    1
    14     5    20   am
    15     5     6   am
    16     6     7    2
    17     6     8   am
    18     8     9    1
    19     8    31    1
    20     9    10    1
    21     9    16    1
    22     9    20    1
    23    10    11   am
    24    10    32    1
    25    11    12    2
    26    11    13    1
    27    13    15    1
    28    13    14    1
    29    13    33    1
    30    14    15    1
    31    14    34    1
    32    14    35    1
    33    15    36    1
    34    15    37    1
    35    16    17    1
    36    16    18    1
    37    16    19    1
    38    20    21    2
