@<TRIPOS>MOLECULE
ZINC000035392760
 45 47 0 0 0
SMALL
GASTEIGER

@<TRIPOS>ATOM
      1 C          -0.1882   -0.7801    2.1058 C.3     1  UNL1       -0.0126
      2 N          -0.1852   -1.8621    1.1123 N.3     1  UNL1       -0.3022
      3 C          -1.4934   -2.5280    1.0552 C.3     1  UNL1        0.0131
      4 C          -1.5063   -3.5224   -0.1106 C.3     1  UNL1        0.0340
      5 N          -0.3544   -4.4256    0.0329 N.3     1  UNL1       -0.1667
      6 S          -0.5499   -6.0689   -0.0290 S.O2    1  UNL1        0.0629
      7 O           0.4928   -6.6270    0.7588 O.2     1  UNL1       -0.1528
      8 O          -1.9273   -6.3186    0.2152 O.2     1  UNL1       -0.1528
      9 C          -0.2404   -6.5687   -1.6901 C.ar    1  UNL1        0.1242
     10 C           0.7592   -7.4834   -1.9617 C.ar    1  UNL1       -0.0223
     11 C           1.0022   -7.8757   -3.2650 C.ar    1  UNL1        0.0567
     12 C           2.0925   -8.8732   -3.5606 C.3     1  UNL1        0.4175
     13 F           1.5643  -10.1680   -3.5166 F       1  UNL1       -0.1659
     14 F           2.6175   -8.6267   -4.8337 F       1  UNL1       -0.1659
     15 F           3.1077   -8.7510   -2.6058 F       1  UNL1       -0.1659
     16 C           0.2452   -7.3536   -4.2970 C.ar    1  UNL1       -0.0486
     17 C          -0.7550   -6.4386   -4.0265 C.ar    1  UNL1       -0.0410
     18 C          -1.0020   -6.0497   -2.7222 C.ar    1  UNL1        0.0673
     19 CL         -2.2580   -4.9006   -2.3817 Cl      1  UNL1       -0.0815
     20 C           0.9758   -3.8306    0.2325 C.3     1  UNL1        0.0695
     21 H           1.2885   -3.3194   -0.6780 H       1  UNL1        0.0542
     22 C           1.9685   -4.9125    0.5720 C.ar    1  UNL1       -0.0274
     23 C           2.3063   -5.1513    1.8910 C.ar    1  UNL1       -0.0570
     24 C           3.2169   -6.1436    2.2024 C.ar    1  UNL1       -0.0615
     25 C           3.7894   -6.8974    1.1949 C.ar    1  UNL1       -0.0617
     26 C           3.4509   -6.6591   -0.1240 C.ar    1  UNL1       -0.0615
     27 C           2.5370   -5.6697   -0.4351 C.ar    1  UNL1       -0.0570
     28 C           0.8910   -2.8241    1.3848 C.3     1  UNL1        0.0200
     29 H           0.7664   -0.2549    2.0738 H       1  UNL1        0.0391
     30 H          -0.9946   -0.0821    1.8805 H       1  UNL1        0.0391
     31 H          -0.3386   -1.2003    3.1002 H       1  UNL1        0.0391
     32 H          -1.6715   -3.0606    1.9895 H       1  UNL1        0.0439
     33 H          -2.2747   -1.7828    0.9063 H       1  UNL1        0.0439
     34 H          -2.4300   -4.1007   -0.0885 H       1  UNL1        0.0457
     35 H          -1.4321   -2.9816   -1.0540 H       1  UNL1        0.0457
     36 H           1.3510   -7.8917   -1.1558 H       1  UNL1        0.0643
     37 H           0.4355   -7.6604   -5.3149 H       1  UNL1        0.0623
     38 H          -1.3464   -6.0308   -4.8329 H       1  UNL1        0.0633
     39 H           1.8591   -4.5624    2.6781 H       1  UNL1        0.0621
     40 H           3.4814   -6.3298    3.2329 H       1  UNL1        0.0618
     41 H           4.5013   -7.6722    1.4382 H       1  UNL1        0.0618
     42 H           3.8984   -7.2478   -0.9112 H       1  UNL1        0.0618
     43 H           2.2726   -5.4835   -1.4656 H       1  UNL1        0.0621
     44 H           1.8389   -2.2936    1.4749 H       1  UNL1        0.0446
     45 H           0.6797   -3.3525    2.3145 H       1  UNL1        0.0446
@<TRIPOS>BOND
     1     1     2    1
     2     1    29    1
     3     1    30    1
     4     1    31    1
     5     2    28    1
     6     2     3    1
     7     3     4    1
     8     3    32    1
     9     3    33    1
    10     4     5    1
    11     4    34    1
    12     4    35    1
    13     6     5    1
    14     5    20    1
    15     6     7    2
    16     6     8    2
    17     6     9    1
    18     9    18   ar
    19     9    10   ar
    20    10    11   ar
    21    10    36    1
    22    11    12    1
    23    11    16   ar
    24    12    13    1
    25    12    14    1
    26    12    15    1
    27    16    17   ar
    28    16    37    1
    29    17    18   ar
    30    17    38    1
    31    18    19    1
    32    20    21    1
    33    20    22    1
    34    20    28    1
    35    22    27   ar
    36    22    23   ar
    37    23    24   ar
    38    23    39    1
    39    24    25   ar
    40    24    40    1
    41    25    26   ar
    42    25    41    1
    43    26    27   ar
    44    26    42    1
    45    27    43    1
    46    28    44    1
    47    28    45    1
