@<TRIPOS>MOLECULE
ZINC000237435920
 39 40 0 0 0
SMALL
GASTEIGER

@<TRIPOS>ATOM
      1 C          -0.6212    1.4397    0.6466 C.3     1  UNL1       -0.0476
      2 C          -0.3251   -0.0251    0.3189 C.3     1  UNL1        0.0341
      3 H          -0.0812   -0.1208   -0.7392 H       1  UNL1        0.0479
      4 C          -1.5530   -0.8821    0.6423 C.3     1  UNL1        0.0073
      5 C          -1.2054   -2.3594    0.4449 C.3     1  UNL1       -0.0216
      6 H          -0.8830   -2.5223   -0.5836 H       1  UNL1        0.0851
      7 N          -2.3902   -3.1823    0.7225 N.4     1  UNL1        0.2208
      8 H          -3.1342   -2.9244    0.0915 H       1  UNL1        0.1997
      9 H          -2.1612   -4.1563    0.5924 H       1  UNL1        0.1997
     10 H          -2.6890   -3.0313    1.6743 H       1  UNL1        0.1997
     11 C          -0.0769   -2.7519    1.4012 C.3     1  UNL1        0.0047
     12 C           1.1677   -1.9162    1.0863 C.3     1  UNL1        0.0259
     13 N           0.8079   -0.4919    1.1296 N.3     1  UNL1       -0.1734
     14 S           1.6590    0.5649    2.0787 S.O2    1  UNL1        0.0625
     15 O           0.7100    1.4767    2.6147 O.2     1  UNL1       -0.1528
     16 O           2.5198   -0.2256    2.8871 O.2     1  UNL1       -0.1528
     17 C           2.7011    1.5020    1.0108 C.ar    1  UNL1        0.1237
     18 C           2.5076    2.8637    0.8765 C.ar    1  UNL1       -0.0334
     19 C           3.3252    3.5992    0.0385 C.ar    1  UNL1       -0.0482
     20 C           4.3363    2.9729   -0.6658 C.ar    1  UNL1        0.0563
     21 C           5.2270    3.7752   -1.5790 C.3     1  UNL1        0.4175
     22 F           6.3339    4.2399   -0.8606 F       1  UNL1       -0.1659
     23 F           5.6621    2.9667   -2.6345 F       1  UNL1       -0.1659
     24 F           4.5119    4.8639   -2.0895 F       1  UNL1       -0.1659
     25 C           4.5309    1.6108   -0.5323 C.ar    1  UNL1       -0.0299
     26 C           3.7171    0.8755    0.3107 C.ar    1  UNL1        0.0678
     27 CL          3.9609   -0.8350    0.4789 Cl      1  UNL1       -0.0815
     28 H           0.2955    2.0234    0.5623 H       1  UNL1        0.0245
     29 H          -1.3632    1.8256   -0.0524 H       1  UNL1        0.0245
     30 H          -1.0068    1.5138    1.6634 H       1  UNL1        0.0245
     31 H          -1.8517   -0.7138    1.6770 H       1  UNL1        0.0335
     32 H          -2.3725   -0.6092   -0.0225 H       1  UNL1        0.0335
     33 H          -0.3896   -2.5660    2.4287 H       1  UNL1        0.0333
     34 H           0.1542   -3.8098    1.2764 H       1  UNL1        0.0333
     35 H           1.9417   -2.1203    1.8261 H       1  UNL1        0.0446
     36 H           1.5349   -2.1680    0.0913 H       1  UNL1        0.0446
     37 H           1.7173    3.3535    1.4260 H       1  UNL1        0.0638
     38 H           3.1736    4.6633   -0.0661 H       1  UNL1        0.0624
     39 H           5.3209    1.1216   -1.0826 H       1  UNL1        0.0638
@<TRIPOS>UNITY_ATOM_ATTR
7 1
charge 1
@<TRIPOS>BOND
     1     1     2    1
     2     1    28    1
     3     1    29    1
     4     1    30    1
     5     2     3    1
     6     2    13    1
     7     2     4    1
     8     4     5    1
     9     4    31    1
    10     4    32    1
    11     5     6    1
    12     5     7    1
    13     5    11    1
    14     7     8    1
    15     7     9    1
    16     7    10    1
    17    11    12    1
    18    11    33    1
    19    11    34    1
    20    12    13    1
    21    12    35    1
    22    12    36    1
    23    14    13    1
    24    14    15    2
    25    14    16    2
    26    14    17    1
    27    17    26   ar
    28    17    18   ar
    29    18    19   ar
    30    18    37    1
    31    19    20   ar
    32    19    38    1
    33    20    21    1
    34    20    25   ar
    35    21    22    1
    36    21    23    1
    37    21    24    1
    38    25    26   ar
    39    25    39    1
    40    26    27    1
