@<TRIPOS>MOLECULE
ZINC000019477666
 26 26 0 0 0
SMALL
GASTEIGER

@<TRIPOS>ATOM
      1 C          -0.0187    1.5258    0.0104 C.3     1  UNL1       -0.0037
      2 C           0.0021   -0.0041    0.0020 C.3     1  UNL1        0.1117
      3 N           0.7126   -0.4907    1.1921 N.4     1  UNL1        0.2343
      4 H           0.2403   -0.1653    2.0223 H       1  UNL1        0.2009
      5 H           0.7262   -1.4996    1.1866 H       1  UNL1        0.2009
      6 H           1.6592   -0.1415    1.1850 H       1  UNL1        0.2009
      7 C           0.7074   -0.4901   -1.2379 C.2     1  UNL1        0.4100
      8 O           1.7092   -1.1780   -1.1392 O.co2   1  UNL1       -0.2392
      9 O           0.2764   -0.1953   -2.3396 O.co2   1  UNL1       -0.2392
     10 C          -1.4117   -0.5257    0.0127 C.ar    1  UNL1        0.0139
     11 C          -2.4237    0.2083   -0.5772 C.ar    1  UNL1       -0.0519
     12 C          -3.7206   -0.2702   -0.5674 C.ar    1  UNL1       -0.0496
     13 C          -4.0054   -1.4828    0.0319 C.ar    1  UNL1        0.0548
     14 C          -5.4193   -2.0042    0.0431 C.3     1  UNL1        0.4174
     15 F          -5.6382   -2.7828   -1.0985 F       1  UNL1       -0.1659
     16 F          -5.6191   -2.7859    1.1860 F       1  UNL1       -0.1659
     17 F          -6.3131   -0.9280    0.0520 F       1  UNL1       -0.1659
     18 C          -2.9932   -2.2175    0.6207 C.ar    1  UNL1       -0.0496
     19 C          -1.6957   -1.7408    0.6075 C.ar    1  UNL1       -0.0519
     20 H           1.0039    1.9031    0.0027 H       1  UNL1        0.0296
     21 H          -0.5459    1.8868   -0.8726 H       1  UNL1        0.0296
     22 H          -0.5289    1.8773    0.9072 H       1  UNL1        0.0296
     23 H          -2.2012    1.1557   -1.0455 H       1  UNL1        0.0623
     24 H          -4.5114    0.3036   -1.0277 H       1  UNL1        0.0623
     25 H          -3.2156   -3.1651    1.0886 H       1  UNL1        0.0623
     26 H          -0.9048   -2.3147    1.0675 H       1  UNL1        0.0623
@<TRIPOS>UNITY_ATOM_ATTR
3 1
charge 1
@<TRIPOS>BOND
     1     1    20    1
     2     1    21    1
     3     1    22    1
     4     2     1    1
     5     2     3    1
     6     2     7    1
     7     2    10    1
     8     3     4    1
     9     3     5    1
    10     3     6    1
    11     7     8   ar
    12     7     9   ar
    13    10    19   ar
    14    10    11   ar
    15    11    12   ar
    16    11    23    1
    17    12    13   ar
    18    12    24    1
    19    13    14    1
    20    13    18   ar
    21    14    15    1
    22    14    16    1
    23    14    17    1
    24    18    19   ar
    25    18    25    1
    26    19    26    1
