@<TRIPOS>MOLECULE
ZINC000000892926
 55 57 0 0 0
SMALL
GASTEIGER

@<TRIPOS>ATOM
      1 C          -9.0479   -6.1174    4.1559 C.3     1  UNL1        0.0788
      2 O          -9.2316   -4.7919    3.6545 O.3     1  UNL1       -0.4951
      3 C          -8.2799   -4.3143    2.8100 C.ar    1  UNL1        0.1202
      4 C          -7.1946   -5.1072    2.4665 C.ar    1  UNL1       -0.0181
      5 C          -6.2288   -4.6196    1.6076 C.ar    1  UNL1       -0.0319
      6 C          -6.3429   -3.3422    1.0907 C.ar    1  UNL1        0.1057
      7 S          -5.1090   -2.7230   -0.0042 S.O2    1  UNL1        0.0616
      8 O          -5.1590   -1.3063    0.0950 O.2     1  UNL1       -0.1528
      9 O          -3.9325   -3.4787    0.2486 O.2     1  UNL1       -0.1528
     10 N          -5.5858   -3.1011   -1.5443 N.3     1  UNL1       -0.1635
     11 C          -5.2909   -4.4249   -2.0982 C.3     1  UNL1        0.0971
     12 C          -6.4778   -5.3308   -1.8937 C.2     1  UNL1        0.2289
     13 O          -7.4721   -4.9119   -1.3398 O.2     1  UNL1       -0.2743
     14 N          -6.4343   -6.6065   -2.3263 N.am    1  UNL1       -0.3117
     15 C          -7.5880   -7.4871   -2.1275 C.3     1  UNL1        0.0379
     16 C          -7.2801   -8.8697   -2.7060 C.3     1  UNL1        0.0742
     17 H          -6.4045   -9.2971   -2.2173 H       1  UNL1        0.0611
     18 C          -8.5018   -9.8076   -2.5372 C.3     1  UNL1       -0.0231
     19 C          -8.2541  -10.8238   -3.6853 C.3     1  UNL1       -0.0271
     20 C          -7.6078   -9.9386   -4.7725 C.3     1  UNL1        0.0482
     21 O          -7.0659   -8.7806   -4.1236 O.3     1  UNL1       -0.3750
     22 C          -6.3025   -2.1118   -2.3529 C.3     1  UNL1        0.0460
     23 C          -5.3245   -1.3823   -3.2373 C.ar    1  UNL1       -0.0317
     24 C          -4.7921   -0.1736   -2.8293 C.ar    1  UNL1       -0.0573
     25 C          -3.8950    0.4956   -3.6406 C.ar    1  UNL1       -0.0615
     26 C          -3.5299   -0.0441   -4.8598 C.ar    1  UNL1       -0.0617
     27 C          -4.0616   -1.2533   -5.2674 C.ar    1  UNL1       -0.0615
     28 C          -4.9555   -1.9245   -4.4542 C.ar    1  UNL1       -0.0573
     29 C          -7.4238   -2.5502    1.4312 C.ar    1  UNL1       -0.0319
     30 C          -8.3950   -3.0351    2.2856 C.ar    1  UNL1       -0.0181
     31 H          -9.8762   -6.3740    4.8163 H       1  UNL1        0.0660
     32 H          -9.0162   -6.8198    3.3230 H       1  UNL1        0.0660
     33 H          -8.1112   -6.1693    4.7109 H       1  UNL1        0.0660
     34 H          -7.1046   -6.1047    2.8705 H       1  UNL1        0.0655
     35 H          -5.3837   -5.2364    1.3398 H       1  UNL1        0.0638
     36 H          -5.0823   -4.3345   -3.1642 H       1  UNL1        0.0539
     37 H          -4.4217   -4.8451   -1.5922 H       1  UNL1        0.0539
     38 H          -5.6390   -6.9415   -2.7693 H       1  UNL1        0.1488
     39 H          -7.7967   -7.5775   -1.0615 H       1  UNL1        0.0487
     40 H          -8.4573   -7.0670   -2.6335 H       1  UNL1        0.0487
     41 H          -8.4867  -10.3013   -1.5656 H       1  UNL1        0.0291
     42 H          -9.4361   -9.2664   -2.6863 H       1  UNL1        0.0291
     43 H          -7.5690  -11.6094   -3.3669 H       1  UNL1        0.0288
     44 H          -9.1945  -11.2471   -4.0382 H       1  UNL1        0.0288
     45 H          -6.8098  -10.4887   -5.2711 H       1  UNL1        0.0560
     46 H          -8.3614   -9.6373   -5.5002 H       1  UNL1        0.0560
     47 H          -7.0448   -2.6168   -2.9711 H       1  UNL1        0.0493
     48 H          -6.8010   -1.3985   -1.6966 H       1  UNL1        0.0493
     49 H          -5.0774    0.2481   -1.8768 H       1  UNL1        0.0621
     50 H          -3.4796    1.4403   -3.3221 H       1  UNL1        0.0618
     51 H          -2.8296    0.4791   -5.4939 H       1  UNL1        0.0618
     52 H          -3.7766   -1.6748   -6.2200 H       1  UNL1        0.0618
     53 H          -5.3709   -2.8692   -4.7726 H       1  UNL1        0.0621
     54 H          -7.5109   -1.5529    1.0259 H       1  UNL1        0.0638
     55 H          -9.2392   -2.4160    2.5512 H       1  UNL1        0.0655
@<TRIPOS>BOND
     1     1     2    1
     2     1    31    1
     3     1    32    1
     4     1    33    1
     5     2     3    1
     6     3    30   ar
     7     3     4   ar
     8     4     5   ar
     9     4    34    1
    10     5     6   ar
    11     5    35    1
    12     6     7    1
    13     6    29   ar
    14     7     8    2
    15     7     9    2
    16     7    10    1
    17    10    11    1
    18    10    22    1
    19    11    12    1
    20    11    36    1
    21    11    37    1
    22    12    13    2
    23    12    14   am
    24    14    15    1
    25    14    38    1
    26    15    16    1
    27    15    39    1
    28    15    40    1
    29    16    17    1
    30    16    21    1
    31    16    18    1
    32    18    19    1
    33    18    41    1
    34    18    42    1
    35    19    20    1
    36    19    43    1
    37    19    44    1
    38    20    21    1
    39    20    45    1
    40    20    46    1
    41    22    23    1
    42    22    47    1
    43    22    48    1
    44    23    28   ar
    45    23    24   ar
    46    24    25   ar
    47    24    49    1
    48    25    26   ar
    49    25    50    1
    50    26    27   ar
    51    26    51    1
    52    27    28   ar
    53    27    52    1
    54    28    53    1
    55    29    30   ar
    56    29    54    1
    57    30    55    1
