@<TRIPOS>MOLECULE
ZINC000020032693
 62 64 0 0 0
SMALL
GASTEIGER

@<TRIPOS>ATOM
      1 C          -0.0178    1.4608    0.0101 C.3     1  UNL1        0.0086
      2 N           0.0021   -0.0041    0.0020 N.3     1  UNL1       -0.1827
      3 C           0.0241   -0.7433    1.2666 C.3     1  UNL1        0.0086
      4 S          -0.0004   -0.8243   -1.4366 S.O2    1  UNL1        0.0604
      5 O          -0.5247   -2.1160   -1.1611 O.2     1  UNL1       -0.1529
      6 O          -0.5660    0.0551   -2.3989 O.2     1  UNL1       -0.1529
      7 C           1.6816   -1.0597   -1.9056 C.ar    1  UNL1        0.1057
      8 C           2.3224   -0.1085   -2.6779 C.ar    1  UNL1       -0.0319
      9 C           3.6411   -0.2907   -3.0469 C.ar    1  UNL1       -0.0181
     10 C           4.3226   -1.4291   -2.6417 C.ar    1  UNL1        0.1213
     11 O           5.6201   -1.6105   -3.0031 O.3     1  UNL1       -0.4828
     12 C           6.2587   -2.8058   -2.5500 C.3     1  UNL1        0.1651
     13 C           7.6821   -2.8332   -3.0443 C.2     1  UNL1        0.2509
     14 O           8.1077   -1.9191   -3.7182 O.2     1  UNL1       -0.2721
     15 N           8.4821   -3.8735   -2.7374 N.am    1  UNL1       -0.3084
     16 C           9.8658   -3.9002   -3.2179 C.3     1  UNL1        0.0369
     17 C          10.5393   -5.1608   -2.7401 C.ar    1  UNL1       -0.0302
     18 C          11.1991   -5.1741   -1.5254 C.ar    1  UNL1       -0.0552
     19 C          11.8169   -6.3304   -1.0871 C.ar    1  UNL1       -0.0350
     20 C          11.7745   -7.4736   -1.8632 C.ar    1  UNL1        0.1055
     21 S          12.5625   -8.9473   -1.3048 S.O2    1  UNL1        0.0609
     22 O          12.8350   -9.7210   -2.4651 O.2     1  UNL1       -0.1528
     23 O          13.5689   -8.5413   -0.3873 O.2     1  UNL1       -0.1528
     24 N          11.4453   -9.7981   -0.4271 N.3     1  UNL1       -0.1766
     25 C          11.3074   -9.5816    1.0196 C.3     1  UNL1        0.0205
     26 C           9.8419   -9.2642    1.3331 C.3     1  UNL1       -0.0385
     27 C           8.9524  -10.3783    0.7766 C.3     1  UNL1       -0.0506
     28 C           9.1160  -10.4529   -0.7432 C.3     1  UNL1       -0.0385
     29 C          10.5691  -10.7794   -1.0813 C.3     1  UNL1        0.0205
     30 C          11.1136   -7.4606   -3.0772 C.ar    1  UNL1       -0.0350
     31 C          10.4925   -6.3054   -3.5138 C.ar    1  UNL1       -0.0552
     32 C           3.6776   -2.3818   -1.8665 C.ar    1  UNL1       -0.0181
     33 C           2.3603   -2.1926   -1.4960 C.ar    1  UNL1       -0.0319
     34 H           1.0048    1.8381    0.0023 H       1  UNL1        0.0408
     35 H          -0.5450    1.8219   -0.8730 H       1  UNL1        0.0408
     36 H          -0.5280    1.8123    0.9069 H       1  UNL1        0.0408
     37 H          -0.9979   -0.9406    1.5900 H       1  UNL1        0.0408
     38 H           0.5496   -1.6879    1.1262 H       1  UNL1        0.0408
     39 H           0.5371   -0.1514    2.0246 H       1  UNL1        0.0408
     40 H           1.7914    0.7776   -2.9931 H       1  UNL1        0.0638
     41 H           4.1409    0.4522   -3.6507 H       1  UNL1        0.0655
     42 H           6.2520   -2.8307   -1.4603 H       1  UNL1        0.0795
     43 H           5.7231   -3.6729   -2.9365 H       1  UNL1        0.0795
     44 H           8.1417   -4.6046   -2.1984 H       1  UNL1        0.1491
     45 H           9.8725   -3.8753   -4.3076 H       1  UNL1        0.0512
     46 H          10.4014   -3.0331   -2.8314 H       1  UNL1        0.0512
     47 H          11.2323   -4.2810   -0.9191 H       1  UNL1        0.0621
     48 H          12.3330   -6.3406   -0.1385 H       1  UNL1        0.0637
     49 H          11.6086  -10.4825    1.5542 H       1  UNL1        0.0444
     50 H          11.9360   -8.7453    1.3255 H       1  UNL1        0.0444
     51 H           9.7073   -9.1961    2.4126 H       1  UNL1        0.0278
     52 H           9.5683   -8.3154    0.8714 H       1  UNL1        0.0278
     53 H           9.2429  -11.3306    1.2203 H       1  UNL1        0.0266
     54 H           7.9111  -10.1672    1.0198 H       1  UNL1        0.0266
     55 H           8.4648  -11.2309   -1.1415 H       1  UNL1        0.0278
     56 H           8.8493   -9.4930   -1.1854 H       1  UNL1        0.0278
     57 H          10.7117  -10.7360   -2.1610 H       1  UNL1        0.0444
     58 H          10.8133  -11.7778   -0.7183 H       1  UNL1        0.0444
     59 H          11.0801   -8.3538   -3.6834 H       1  UNL1        0.0637
     60 H           9.9761   -6.2953   -4.4623 H       1  UNL1        0.0621
     61 H           4.2059   -3.2690   -1.5500 H       1  UNL1        0.0655
     62 H           1.8578   -2.9338   -0.8923 H       1  UNL1        0.0638
@<TRIPOS>BOND
     1     1     2    1
     2     1    34    1
     3     1    35    1
     4     1    36    1
     5     2     3    1
     6     4     2    1
     7     3    37    1
     8     3    38    1
     9     3    39    1
    10     4     5    2
    11     4     6    2
    12     4     7    1
    13     7    33   ar
    14     7     8   ar
    15     8     9   ar
    16     8    40    1
    17     9    10   ar
    18     9    41    1
    19    10    11    1
    20    10    32   ar
    21    11    12    1
    22    12    13    1
    23    12    42    1
    24    12    43    1
    25    13    14    2
    26    13    15   am
    27    15    16    1
    28    15    44    1
    29    16    17    1
    30    16    45    1
    31    16    46    1
    32    17    31   ar
    33    17    18   ar
    34    18    19   ar
    35    18    47    1
    36    19    20   ar
    37    19    48    1
    38    20    21    1
    39    20    30   ar
    40    21    22    2
    41    21    23    2
    42    21    24    1
    43    24    29    1
    44    24    25    1
    45    25    26    1
    46    25    49    1
    47    25    50    1
    48    26    27    1
    49    26    51    1
    50    26    52    1
    51    27    28    1
    52    27    53    1
    53    27    54    1
    54    28    29    1
    55    28    55    1
    56    28    56    1
    57    29    57    1
    58    29    58    1
    59    30    31   ar
    60    30    59    1
    61    31    60    1
    62    32    33   ar
    63    32    61    1
    64    33    62    1
