@<TRIPOS>MOLECULE
ZINC000408702281
 49 51 0 0 0
SMALL
GASTEIGER

@<TRIPOS>ATOM
      1 C           0.3231    1.0675    0.6360 C.3     1  UNL1       -0.0362
      2 C          -0.1076   -0.2996    0.1007 C.3     1  UNL1        0.1191
      3 H          -1.1855   -0.4124    0.2177 H       1  UNL1        0.0612
      4 C           0.5977   -1.3857    0.8713 C.2     1  UNL1        0.2392
      5 O           1.3219   -2.1676    0.2923 O.2     1  UNL1       -0.2734
      6 N           0.4238   -1.4883    2.2038 N.am    1  UNL1       -0.2827
      7 C           1.1472   -2.4394    2.9329 C.ar    1  UNL1        0.0524
      8 C           1.5189   -3.6369    2.3375 C.ar    1  UNL1       -0.0274
      9 C           2.2332   -4.5736    3.0594 C.ar    1  UNL1        0.0566
     10 C           2.6373   -5.8735    2.4131 C.3     1  UNL1        0.4175
     11 F           3.8913   -5.7249    1.8108 F       1  UNL1       -0.1659
     12 F           2.7031   -6.8772    3.3855 F       1  UNL1       -0.1659
     13 F           1.6928   -6.2253    1.4429 F       1  UNL1       -0.1659
     14 C           2.5782   -4.3197    4.3739 C.ar    1  UNL1       -0.0486
     15 C           2.2094   -3.1280    4.9712 C.ar    1  UNL1       -0.0411
     16 C           1.4998   -2.1844    4.2530 C.ar    1  UNL1        0.0621
     17 CL          1.0376   -0.6885    5.0027 Cl      1  UNL1       -0.0816
     18 N           0.2428   -0.4010   -1.3181 N.pl3   1  UNL1       -0.1959
     19 C           1.5680   -0.2139   -1.7265 C.ar    1  UNL1        0.0554
     20 C           2.3103   -1.2910   -2.1913 C.ar    1  UNL1       -0.0354
     21 C           3.6198   -1.1069   -2.5927 C.ar    1  UNL1       -0.0145
     22 C           4.1962    0.1526   -2.5330 C.ar    1  UNL1        0.1622
     23 O           5.4911    0.3130   -2.9249 O.3     1  UNL1       -0.4849
     24 C           5.9188    1.6510   -3.2016 C.3     1  UNL1        0.1237
     25 C           5.4302    2.5570   -2.0633 C.3     1  UNL1        0.1237
     26 O           4.0016    2.4788   -2.0102 O.3     1  UNL1       -0.4849
     27 C           3.4544    1.2340   -2.0715 C.ar    1  UNL1        0.1639
     28 C           2.1395    1.0499   -1.6726 C.ar    1  UNL1        0.0064
     29 S          -0.9293   -0.7371   -2.4386 S.O2    1  UNL1        0.0433
     30 C          -1.4706    0.8903   -3.0294 C.3     1  UNL1        0.0738
     31 O          -0.2414   -1.4372   -3.4662 O.2     1  UNL1       -0.1552
     32 O          -1.9611   -1.3640   -1.6891 O.2     1  UNL1       -0.1552
     33 H           1.4062    1.1630    0.5590 H       1  UNL1        0.0253
     34 H          -0.1535    1.8536    0.0503 H       1  UNL1        0.0253
     35 H           0.0235    1.1598    1.6799 H       1  UNL1        0.0253
     36 H          -0.2026   -0.9030    2.6577 H       1  UNL1        0.1549
     37 H           1.2496   -3.8365    1.3108 H       1  UNL1        0.0642
     38 H           3.1366   -5.0538    4.9358 H       1  UNL1        0.0623
     39 H           2.4801   -2.9328    5.9983 H       1  UNL1        0.0633
     40 H           1.8642   -2.2735   -2.2388 H       1  UNL1        0.0638
     41 H           4.1956   -1.9463   -2.9535 H       1  UNL1        0.0656
     42 H           7.0069    1.6849   -3.2570 H       1  UNL1        0.0731
     43 H           5.4914    1.9855   -4.1468 H       1  UNL1        0.0731
     44 H           5.8523    2.2185   -1.1171 H       1  UNL1        0.0731
     45 H           5.7351    3.5856   -2.2556 H       1  UNL1        0.0731
     46 H           1.5612    1.8893   -1.3156 H       1  UNL1        0.0674
     47 H          -0.6673    1.3550   -3.6012 H       1  UNL1        0.0482
     48 H          -2.3481    0.7726   -3.6653 H       1  UNL1        0.0482
     49 H          -1.7218    1.5213   -2.1768 H       1  UNL1        0.0482
@<TRIPOS>BOND
     1     1     2    1
     2     1    33    1
     3     1    34    1
     4     1    35    1
     5     2     3    1
     6     2     4    1
     7     2    18    1
     8     4     5    2
     9     4     6   am
    10     6     7    1
    11     6    36    1
    12     7    16   ar
    13     7     8   ar
    14     8     9   ar
    15     8    37    1
    16     9    10    1
    17     9    14   ar
    18    10    11    1
    19    10    12    1
    20    10    13    1
    21    14    15   ar
    22    14    38    1
    23    15    16   ar
    24    15    39    1
    25    16    17    1
    26    18    19    1
    27    29    18    1
    28    19    28   ar
    29    19    20   ar
    30    20    21   ar
    31    20    40    1
    32    21    22   ar
    33    21    41    1
    34    22    27   ar
    35    22    23    1
    36    23    24    1
    37    24    25    1
    38    24    42    1
    39    24    43    1
    40    25    26    1
    41    25    44    1
    42    25    45    1
    43    26    27    1
    44    27    28   ar
    45    28    46    1
    46    29    30    1
    47    29    31    2
    48    29    32    2
    49    30    47    1
    50    30    48    1
    51    30    49    1
