@<TRIPOS>MOLECULE
ZINC000065364733
 46 47 0 0 0
SMALL
GASTEIGER

@<TRIPOS>ATOM
      1 C          -0.7249    1.1424    0.0846 C.3     1  UNL1       -0.0362
      2 C          -0.3424   -0.3339   -0.0390 C.3     1  UNL1        0.1190
      3 H           0.2172   -0.6395    0.8451 H       1  UNL1        0.0611
      4 C          -1.5918   -1.1683   -0.1559 C.2     1  UNL1        0.2376
      5 O          -1.9252   -1.6134   -1.2337 O.2     1  UNL1       -0.2735
      6 N          -2.3388   -1.4201    0.9374 N.am    1  UNL1       -0.2999
      7 C          -1.8973   -0.9718    2.2651 C.3     1  UNL1        0.0147
      8 C          -3.0213   -0.1534    2.9082 C.3     1  UNL1       -0.0371
      9 C          -4.3078   -0.9822    2.9202 C.3     1  UNL1       -0.0502
     10 C          -4.7149   -1.3163    1.4832 C.3     1  UNL1       -0.0371
     11 C          -3.6130   -2.1426    0.8232 C.3     1  UNL1        0.0147
     12 N           0.4862   -0.5255   -1.2318 N.pl3   1  UNL1       -0.1960
     13 C           0.0275   -0.0917   -2.4778 C.ar    1  UNL1        0.0522
     14 C          -0.0577    1.2669   -2.7536 C.ar    1  UNL1       -0.0390
     15 C          -0.5112    1.6925   -3.9870 C.ar    1  UNL1       -0.0594
     16 C          -0.8801    0.7677   -4.9464 C.ar    1  UNL1       -0.0500
     17 C          -0.7969   -0.5859   -4.6748 C.ar    1  UNL1        0.0566
     18 C          -1.2001   -1.5901   -5.7236 C.3     1  UNL1        0.4175
     19 F          -1.6199   -0.9175   -6.8763 F       1  UNL1       -0.1659
     20 F          -0.1068   -2.4066   -6.0322 F       1  UNL1       -0.1659
     21 F          -2.2480   -2.3784   -5.2360 F       1  UNL1       -0.1659
     22 C          -0.3390   -1.0182   -3.4459 C.ar    1  UNL1       -0.0274
     23 S           1.9665   -1.2564   -1.1030 S.O2    1  UNL1        0.0432
     24 C           1.6402   -3.0053   -1.4570 C.3     1  UNL1        0.0738
     25 O           2.7375   -0.6723   -2.1441 O.2     1  UNL1       -0.1552
     26 O           2.3258   -1.0823    0.2607 O.2     1  UNL1       -0.1552
     27 H           0.1790    1.7467    0.1613 H       1  UNL1        0.0253
     28 H          -1.2912    1.4460   -0.7958 H       1  UNL1        0.0253
     29 H          -1.3349    1.2863    0.9764 H       1  UNL1        0.0253
     30 H          -1.6740   -1.8382    2.8877 H       1  UNL1        0.0464
     31 H          -1.0061   -0.3525    2.1640 H       1  UNL1        0.0464
     32 H          -2.7448    0.1040    3.9306 H       1  UNL1        0.0280
     33 H          -3.1816    0.7589    2.3335 H       1  UNL1        0.0280
     34 H          -4.1396   -1.9058    3.4740 H       1  UNL1        0.0266
     35 H          -5.1031   -0.4114    3.3995 H       1  UNL1        0.0266
     36 H          -5.6437   -1.8866    1.4915 H       1  UNL1        0.0280
     37 H          -4.8592   -0.3931    0.9220 H       1  UNL1        0.0280
     38 H          -3.8534   -2.2984   -0.2285 H       1  UNL1        0.0464
     39 H          -3.5268   -3.1054    1.3270 H       1  UNL1        0.0464
     40 H           0.2300    1.9897   -2.0045 H       1  UNL1        0.0636
     41 H          -0.5780    2.7487   -4.2020 H       1  UNL1        0.0618
     42 H          -1.2344    1.1032   -5.9099 H       1  UNL1        0.0623
     43 H          -0.2743   -2.0753   -3.2345 H       1  UNL1        0.0642
     44 H           1.3666   -3.1188   -2.5060 H       1  UNL1        0.0482
     45 H           2.5356   -3.5912   -1.2496 H       1  UNL1        0.0482
     46 H           0.8222   -3.3568   -0.8281 H       1  UNL1        0.0482
@<TRIPOS>BOND
     1     1     2    1
     2     1    27    1
     3     1    28    1
     4     1    29    1
     5     2     3    1
     6     2     4    1
     7     2    12    1
     8     4     5    2
     9     4     6   am
    10     6    11    1
    11     6     7    1
    12     7     8    1
    13     7    30    1
    14     7    31    1
    15     8     9    1
    16     8    32    1
    17     8    33    1
    18     9    10    1
    19     9    34    1
    20     9    35    1
    21    10    11    1
    22    10    36    1
    23    10    37    1
    24    11    38    1
    25    11    39    1
    26    12    13    1
    27    23    12    1
    28    13    22   ar
    29    13    14   ar
    30    14    15   ar
    31    14    40    1
    32    15    16   ar
    33    15    41    1
    34    16    17   ar
    35    16    42    1
    36    17    18    1
    37    17    22   ar
    38    18    19    1
    39    18    20    1
    40    18    21    1
    41    22    43    1
    42    23    24    1
    43    23    25    2
    44    23    26    2
    45    24    44    1
    46    24    45    1
    47    24    46    1
