@<TRIPOS>MOLECULE
ZINC000408781564
 55 56 0 0 0
SMALL
GASTEIGER

@<TRIPOS>ATOM
      1 C          -0.0173    1.4248    0.0099 C.3     1  UNL1        0.0365
      2 O           0.0021   -0.0041    0.0020 O.3     1  UNL1       -0.3814
      3 C           0.6518   -0.5703   -1.1379 C.3     1  UNL1        0.0628
      4 C           0.6131   -2.0967   -1.0411 C.3     1  UNL1        0.0350
      5 N          -0.7759   -2.5559   -1.1188 N.am    1  UNL1       -0.3120
      6 C          -1.0549   -3.8729   -1.0544 C.2     1  UNL1        0.2289
      7 O          -0.1561   -4.6779   -0.9320 O.2     1  UNL1       -0.2743
      8 C          -2.4837   -4.3452   -1.1344 C.3     1  UNL1        0.0971
      9 N          -2.5208   -5.8068   -1.0417 N.3     1  UNL1       -0.1635
     10 C          -2.5267   -6.4576    0.2708 C.3     1  UNL1        0.0460
     11 C          -3.9403   -6.5333    0.7876 C.ar    1  UNL1       -0.0317
     12 C          -4.4541   -5.5001    1.5488 C.ar    1  UNL1       -0.0573
     13 C          -5.7508   -5.5695    2.0229 C.ar    1  UNL1       -0.0615
     14 C          -6.5338   -6.6718    1.7354 C.ar    1  UNL1       -0.0617
     15 C          -6.0202   -7.7046    0.9735 C.ar    1  UNL1       -0.0615
     16 C          -4.7250   -7.6333    0.4958 C.ar    1  UNL1       -0.0573
     17 S          -2.5560   -6.7233   -2.4205 S.O2    1  UNL1        0.0617
     18 O          -3.1300   -7.9717   -2.0580 O.2     1  UNL1       -0.1528
     19 O          -3.0876   -5.8909   -3.4421 O.2     1  UNL1       -0.1528
     20 C          -0.8847   -7.0555   -2.8688 C.ar    1  UNL1        0.1092
     21 C          -0.2086   -6.1854   -3.7030 C.ar    1  UNL1       -0.0317
     22 C           1.1030   -6.4419   -4.0581 C.ar    1  UNL1       -0.0145
     23 C           1.7423   -7.5728   -3.5772 C.ar    1  UNL1        0.1616
     24 O           3.0323   -7.8263   -3.9251 O.3     1  UNL1       -0.4915
     25 C           3.6681   -6.8835   -4.7905 C.3     1  UNL1        0.0790
     26 C           1.0615   -8.4489   -2.7367 C.ar    1  UNL1        0.1633
     27 O           1.6849   -9.5602   -2.2615 O.3     1  UNL1       -0.4914
     28 C           0.9247  -10.4139   -1.4040 C.3     1  UNL1        0.0790
     29 C          -0.2506   -8.1833   -2.3806 C.ar    1  UNL1        0.0101
     30 H           1.0053    1.8021    0.0021 H       1  UNL1        0.0523
     31 H          -0.5445    1.7859   -0.8732 H       1  UNL1        0.0523
     32 H          -0.5275    1.7763    0.9067 H       1  UNL1        0.0523
     33 H           0.1385   -0.2506   -2.0447 H       1  UNL1        0.0575
     34 H           1.6883   -0.2344   -1.1694 H       1  UNL1        0.0575
     35 H           1.1847   -2.5275   -1.8631 H       1  UNL1        0.0484
     36 H           1.0473   -2.4117   -0.0922 H       1  UNL1        0.0484
     37 H          -1.4948   -1.9121   -1.2167 H       1  UNL1        0.1488
     38 H          -3.0554   -3.9144   -0.3124 H       1  UNL1        0.0539
     39 H          -2.9180   -4.0302   -2.0832 H       1  UNL1        0.0539
     40 H          -2.1191   -7.4644    0.1790 H       1  UNL1        0.0493
     41 H          -1.9163   -5.8804    0.9653 H       1  UNL1        0.0493
     42 H          -3.8424   -4.6388    1.7734 H       1  UNL1        0.0621
     43 H          -6.1520   -4.7626    2.6182 H       1  UNL1        0.0618
     44 H          -7.5466   -6.7263    2.1064 H       1  UNL1        0.0618
     45 H          -6.6318   -8.5660    0.7492 H       1  UNL1        0.0618
     46 H          -4.3238   -8.4402   -0.0995 H       1  UNL1        0.0621
     47 H          -0.7059   -5.3033   -4.0787 H       1  UNL1        0.0638
     48 H           1.6289   -5.7607   -4.7107 H       1  UNL1        0.0656
     49 H           3.1178   -6.8237   -5.7295 H       1  UNL1        0.0660
     50 H           3.6805   -5.9034   -4.3136 H       1  UNL1        0.0660
     51 H           4.6908   -7.2042   -4.9885 H       1  UNL1        0.0660
     52 H           1.5387  -11.2607   -1.0972 H       1  UNL1        0.0660
     53 H           0.6092   -9.8557   -0.5226 H       1  UNL1        0.0660
     54 H           0.0465  -10.7766   -1.9381 H       1  UNL1        0.0660
     55 H          -0.7811   -8.8615   -1.7286 H       1  UNL1        0.0675
@<TRIPOS>BOND
     1     1     2    1
     2     1    30    1
     3     1    31    1
     4     1    32    1
     5     2     3    1
     6     3     4    1
     7     3    33    1
     8     3    34    1
     9     4     5    1
    10     4    35    1
    11     4    36    1
    12     5     6   am
    13     5    37    1
    14     6     7    2
    15     6     8    1
    16     8     9    1
    17     8    38    1
    18     8    39    1
    19     9    10    1
    20    17     9    1
    21    10    11    1
    22    10    40    1
    23    10    41    1
    24    11    16   ar
    25    11    12   ar
    26    12    13   ar
    27    12    42    1
    28    13    14   ar
    29    13    43    1
    30    14    15   ar
    31    14    44    1
    32    15    16   ar
    33    15    45    1
    34    16    46    1
    35    17    18    2
    36    17    19    2
    37    17    20    1
    38    20    29   ar
    39    20    21   ar
    40    21    22   ar
    41    21    47    1
    42    22    23   ar
    43    22    48    1
    44    23    24    1
    45    23    26   ar
    46    24    25    1
    47    25    49    1
    48    25    50    1
    49    25    51    1
    50    26    27    1
    51    26    29   ar
    52    27    28    1
    53    28    52    1
    54    28    53    1
    55    28    54    1
    56    29    55    1
