@<TRIPOS>MOLECULE
ZINC000015386094
 47 48 0 0 0
SMALL
GASTEIGER

@<TRIPOS>ATOM
      1 C          -0.0189    1.5036    0.0070 C.3     1  UNL1       -0.0436
      2 C           0.0020   -0.0032   -0.0052 C.2     1  UNL1       -0.0708
      3 C           1.3173   -0.7384   -0.0273 C.3     1  UNL1       -0.0436
      4 C          -1.1403   -0.6842    0.0037 C.2     1  UNL1       -0.0009
      5 C          -2.4242    0.0334    0.0254 C.2     1  UNL1        0.2394
      6 O          -2.4420    1.2451    0.1284 O.2     1  UNL1       -0.2706
      7 N          -3.5809   -0.6518   -0.0690 N.am    1  UNL1       -0.2955
      8 C          -3.5815   -2.1215   -0.0723 C.3     1  UNL1        0.0294
      9 C          -4.5030   -2.6137    1.0506 C.3     1  UNL1        0.0364
     10 N          -5.7864   -1.9047    0.9497 N.3     1  UNL1       -0.1736
     11 S          -7.2077   -2.7467    0.8348 S.O2    1  UNL1        0.0610
     12 O          -8.1424   -1.8736    0.2158 O.2     1  UNL1       -0.1528
     13 O          -6.8752   -4.0258    0.3128 O.2     1  UNL1       -0.1528
     14 C          -7.7891   -3.0150    2.4764 C.ar    1  UNL1        0.1065
     15 C          -7.4056   -4.1483    3.1688 C.ar    1  UNL1       -0.0237
     16 C          -7.8617   -4.3588    4.4566 C.ar    1  UNL1        0.0572
     17 C          -7.4441   -5.5946    5.2113 C.3     1  UNL1        0.4175
     18 F          -6.2675   -5.3321    5.9212 F       1  UNL1       -0.1659
     19 F          -8.4565   -5.9595    6.1052 F       1  UNL1       -0.1659
     20 F          -7.2207   -6.6393    4.3081 F       1  UNL1       -0.1659
     21 C          -8.7005   -3.4356    5.0524 C.ar    1  UNL1       -0.0384
     22 C          -9.0836   -2.3020    4.3601 C.ar    1  UNL1        0.0572
     23 C          -9.9984   -1.2957    5.0094 C.3     1  UNL1        0.4175
     24 F         -10.3217   -1.7248    6.3011 F       1  UNL1       -0.1659
     25 F          -9.3543   -0.0557    5.0774 F       1  UNL1       -0.1659
     26 F         -11.1684   -1.1726    4.2524 F       1  UNL1       -0.1659
     27 C          -8.6240   -2.0894    3.0738 C.ar    1  UNL1       -0.0237
     28 C          -5.7858   -0.4350    0.9529 C.3     1  UNL1        0.0364
     29 C          -4.8647    0.0572   -0.1643 C.3     1  UNL1        0.0294
     30 H           1.0036    1.8812   -0.0028 H       1  UNL1        0.0274
     31 H          -0.5488    1.8667   -0.8737 H       1  UNL1        0.0274
     32 H          -0.5266    1.8527    0.9061 H       1  UNL1        0.0274
     33 H           1.6473   -0.9237    0.9949 H       1  UNL1        0.0274
     34 H           1.1938   -1.6885   -0.5472 H       1  UNL1        0.0274
     35 H           2.0623   -0.1347   -0.5458 H       1  UNL1        0.0274
     36 H          -1.1254   -1.7640   -0.0049 H       1  UNL1        0.0669
     37 H          -3.9482   -2.4850   -1.0322 H       1  UNL1        0.0478
     38 H          -2.5693   -2.4881    0.0981 H       1  UNL1        0.0478
     39 H          -4.6681   -3.6859    0.9448 H       1  UNL1        0.0459
     40 H          -4.0450   -2.4053    2.0175 H       1  UNL1        0.0459
     41 H          -6.7500   -4.8695    2.7035 H       1  UNL1        0.0642
     42 H          -9.0569   -3.6000    6.0585 H       1  UNL1        0.0629
     43 H          -8.9233   -1.2038    2.5330 H       1  UNL1        0.0642
     44 H          -6.7980   -0.0684    0.7826 H       1  UNL1        0.0459
     45 H          -5.4191   -0.0715    1.9129 H       1  UNL1        0.0459
     46 H          -4.7005    1.1294   -0.0573 H       1  UNL1        0.0478
     47 H          -5.3205   -0.1508   -1.1324 H       1  UNL1        0.0478
@<TRIPOS>BOND
     1     1     2    1
     2     1    30    1
     3     1    31    1
     4     1    32    1
     5     2     3    1
     6     2     4    2
     7     3    33    1
     8     3    34    1
     9     3    35    1
    10     4     5    1
    11     4    36    1
    12     5     6    2
    13     5     7   am
    14     7    29    1
    15     7     8    1
    16     8     9    1
    17     8    37    1
    18     8    38    1
    19     9    10    1
    20     9    39    1
    21     9    40    1
    22    11    10    1
    23    10    28    1
    24    11    12    2
    25    11    13    2
    26    11    14    1
    27    14    27   ar
    28    14    15   ar
    29    15    16   ar
    30    15    41    1
    31    16    17    1
    32    16    21   ar
    33    17    18    1
    34    17    19    1
    35    17    20    1
    36    21    22   ar
    37    21    42    1
    38    22    23    1
    39    22    27   ar
    40    23    24    1
    41    23    25    1
    42    23    26    1
    43    27    43    1
    44    28    29    1
    45    28    44    1
    46    28    45    1
    47    29    46    1
    48    29    47    1
