@<TRIPOS>MOLECULE
ZINC000004616497
 54 56 0 0 0
SMALL
GASTEIGER

@<TRIPOS>ATOM
      1 C          -0.0184    1.5028    0.0103 C.3     1  UNL1       -0.0397
      2 C           0.0021   -0.0041    0.0020 C.ar    1  UNL1       -0.0503
      3 C           0.0057   -0.6887   -1.1989 C.ar    1  UNL1       -0.0570
      4 C           0.0245   -2.0709   -1.2065 C.ar    1  UNL1       -0.0351
      5 C           0.0400   -2.7685   -0.0132 C.ar    1  UNL1        0.1055
      6 S           0.0633   -4.5303   -0.0229 S.O2    1  UNL1        0.0616
      7 O          -0.4690   -4.9455    1.2275 O.2     1  UNL1       -0.1528
      8 O          -0.4824   -4.9319   -1.2719 O.2     1  UNL1       -0.1528
      9 N           1.6514   -4.9995   -0.0340 N.3     1  UNL1       -0.1634
     10 C           2.3607   -5.2139    1.2298 C.3     1  UNL1        0.0971
     11 C           2.3054   -6.6748    1.5953 C.2     1  UNL1        0.2289
     12 O           1.7301   -7.4597    0.8714 O.2     1  UNL1       -0.2743
     13 N           2.8952   -7.1093    2.7267 N.am    1  UNL1       -0.3117
     14 C           2.8414   -8.5295    3.0820 C.3     1  UNL1        0.0379
     15 C           3.5821   -8.7534    4.4018 C.3     1  UNL1        0.0742
     16 H           3.1279   -8.1599    5.1953 H       1  UNL1        0.0611
     17 C           3.5672  -10.2563    4.7787 C.3     1  UNL1       -0.0231
     18 C           4.8278  -10.3465    5.6812 C.3     1  UNL1       -0.0271
     19 C           5.7758   -9.3209    5.0233 C.3     1  UNL1        0.0482
     20 O           4.9705   -8.4144    4.2581 O.3     1  UNL1       -0.3750
     21 C           2.3471   -5.2001   -1.3075 C.3     1  UNL1        0.0488
     22 C           3.0899   -3.9422   -1.6778 C.ar    1  UNL1        0.0035
     23 C           2.5474   -3.0643   -2.5967 C.ar    1  UNL1       -0.0546
     24 C           3.2287   -1.9102   -2.9366 C.ar    1  UNL1       -0.0613
     25 C           4.4532   -1.6334   -2.3582 C.ar    1  UNL1       -0.0590
     26 C           4.9980   -2.5103   -1.4392 C.ar    1  UNL1       -0.0261
     27 C           4.3137   -3.6629   -1.0931 C.ar    1  UNL1        0.1278
     28 F           4.8453   -4.5207   -0.1949 F       1  UNL1       -0.2052
     29 C           0.0378   -2.0839    1.1877 C.ar    1  UNL1       -0.0351
     30 C           0.0229   -0.7016    1.1953 C.ar    1  UNL1       -0.0570
     31 H           1.0042    1.8801    0.0026 H       1  UNL1        0.0278
     32 H          -0.5455    1.8639   -0.8728 H       1  UNL1        0.0278
     33 H          -0.5286    1.8543    0.9071 H       1  UNL1        0.0278
     34 H          -0.0064   -0.1436   -2.1312 H       1  UNL1        0.0621
     35 H           0.0266   -2.6057   -2.1448 H       1  UNL1        0.0637
     36 H           3.4005   -4.9060    1.1197 H       1  UNL1        0.0539
     37 H           1.8886   -4.6246    2.0159 H       1  UNL1        0.0539
     38 H           3.3552   -6.4816    3.3056 H       1  UNL1        0.1488
     39 H           1.8016   -8.8374    3.1921 H       1  UNL1        0.0487
     40 H           3.3134   -9.1188    2.2959 H       1  UNL1        0.0487
     41 H           2.6660  -10.5127    5.3357 H       1  UNL1        0.0291
     42 H           3.6718  -10.8842    3.8938 H       1  UNL1        0.0291
     43 H           4.5932  -10.0565    6.7054 H       1  UNL1        0.0288
     44 H           5.2571  -11.3478    5.6491 H       1  UNL1        0.0288
     45 H           6.3182   -8.7719    5.7930 H       1  UNL1        0.0560
     46 H           6.4796   -9.8348    4.3686 H       1  UNL1        0.0560
     47 H           3.0540   -6.0240   -1.2095 H       1  UNL1        0.0494
     48 H           1.6206   -5.4353   -2.0853 H       1  UNL1        0.0494
     49 H           1.5910   -3.2799   -3.0498 H       1  UNL1        0.0622
     50 H           2.8039   -1.2246   -3.6549 H       1  UNL1        0.0618
     51 H           4.9846   -0.7317   -2.6248 H       1  UNL1        0.0618
     52 H           5.9551   -2.2941   -0.9879 H       1  UNL1        0.0646
     53 H           0.0503   -2.6289    2.1200 H       1  UNL1        0.0637
     54 H           0.0211   -0.1667    2.1335 H       1  UNL1        0.0621
@<TRIPOS>BOND
     1     1     2    1
     2     1    31    1
     3     1    32    1
     4     1    33    1
     5     2    30   ar
     6     2     3   ar
     7     3     4   ar
     8     3    34    1
     9     4     5   ar
    10     4    35    1
    11     5     6    1
    12     5    29   ar
    13     6     7    2
    14     6     8    2
    15     6     9    1
    16     9    10    1
    17     9    21    1
    18    10    11    1
    19    10    36    1
    20    10    37    1
    21    11    12    2
    22    11    13   am
    23    13    14    1
    24    13    38    1
    25    14    15    1
    26    14    39    1
    27    14    40    1
    28    15    16    1
    29    15    20    1
    30    15    17    1
    31    17    18    1
    32    17    41    1
    33    17    42    1
    34    18    19    1
    35    18    43    1
    36    18    44    1
    37    19    20    1
    38    19    45    1
    39    19    46    1
    40    21    22    1
    41    21    47    1
    42    21    48    1
    43    22    27   ar
    44    22    23   ar
    45    23    24   ar
    46    23    49    1
    47    24    25   ar
    48    24    50    1
    49    25    26   ar
    50    25    51    1
    51    26    27   ar
    52    26    52    1
    53    27    28    1
    54    29    30   ar
    55    29    53    1
    56    30    54    1
