@<TRIPOS>MOLECULE
ZINC000003427413
 45 47 0 0 0
SMALL
GASTEIGER

@<TRIPOS>ATOM
      1 O           0.0021   -0.0041    0.0020 O.2     1  UNL1       -0.1528
      2 S          -0.0172    1.4168    0.0098 S.O2    1  UNL1        0.0637
      3 O           1.1617    2.2101    0.0028 O.2     1  UNL1       -0.1528
      4 C          -0.9567    1.9094   -1.3970 C.ar    1  UNL1        0.1405
      5 C          -0.4619    2.8719   -2.2561 C.ar    1  UNL1       -0.0325
      6 C          -1.1990    3.2587   -3.3601 C.ar    1  UNL1       -0.0597
      7 C          -2.4316    2.6835   -3.6056 C.ar    1  UNL1       -0.0589
      8 C          -2.9288    1.7208   -2.7474 C.ar    1  UNL1       -0.0245
      9 C          -2.1888    1.3279   -1.6453 C.ar    1  UNL1        0.1496
     10 F          -2.6738    0.3870   -0.8059 F       1  UNL1       -0.2034
     11 N          -0.8748    1.8654    1.3536 N.3     1  UNL1       -0.1740
     12 C          -0.6796    3.1911    1.9573 C.3     1  UNL1        0.0350
     13 C          -2.0388    3.8966    2.0404 C.3     1  UNL1        0.0349
     14 N          -3.0091    2.9765    2.6503 N.3     1  UNL1       -0.1740
     15 S          -3.8674    3.4255    3.9934 S.O2    1  UNL1        0.0623
     16 O          -4.2585    2.2224    4.6404 O.2     1  UNL1       -0.1528
     17 O          -3.1076    4.4411    4.6341 O.2     1  UNL1       -0.1528
     18 C          -5.3506    4.1933    3.4318 C.ar    1  UNL1        0.1242
     19 C          -6.5746    3.6099    3.6986 C.ar    1  UNL1       -0.0223
     20 C          -7.7386    4.2122    3.2580 C.ar    1  UNL1        0.0567
     21 C          -9.0730    3.5754    3.5492 C.3     1  UNL1        0.4175
     22 F          -9.5628    4.0559    4.7685 F       1  UNL1       -0.1659
     23 F          -9.9741    3.8927    2.5272 F       1  UNL1       -0.1659
     24 F          -8.9210    2.1867    3.6225 F       1  UNL1       -0.1659
     25 C          -7.6787    5.3983    2.5509 C.ar    1  UNL1       -0.0486
     26 C          -6.4549    5.9829    2.2835 C.ar    1  UNL1       -0.0410
     27 C          -5.2904    5.3835    2.7286 C.ar    1  UNL1        0.0673
     28 CL         -3.7531    6.1170    2.3931 Cl      1  UNL1       -0.0815
     29 C          -3.2042    1.6508    2.0465 C.3     1  UNL1        0.0349
     30 C          -1.8490    0.9474    1.9601 C.3     1  UNL1        0.0350
     31 H           0.5007    3.3226   -2.0649 H       1  UNL1        0.0638
     32 H          -0.8115    4.0111   -4.0310 H       1  UNL1        0.0618
     33 H          -3.0067    2.9866   -4.4680 H       1  UNL1        0.0618
     34 H          -3.8923    1.2719   -2.9390 H       1  UNL1        0.0647
     35 H          -0.2636    3.0794    2.9586 H       1  UNL1        0.0457
     36 H           0.0000    3.7780    1.3395 H       1  UNL1        0.0457
     37 H          -1.9489    4.7928    2.6543 H       1  UNL1        0.0457
     38 H          -2.3719    4.1682    1.0387 H       1  UNL1        0.0457
     39 H          -6.6220    2.6831    4.2510 H       1  UNL1        0.0643
     40 H          -8.5882    5.8683    2.2070 H       1  UNL1        0.0623
     41 H          -6.4083    6.9097    1.7310 H       1  UNL1        0.0633
     42 H          -3.8838    1.0639    2.6644 H       1  UNL1        0.0457
     43 H          -3.6202    1.7625    1.0453 H       1  UNL1        0.0457
     44 H          -1.9405    0.0514    1.3461 H       1  UNL1        0.0457
     45 H          -1.5136    0.6754    2.9609 H       1  UNL1        0.0457
@<TRIPOS>BOND
     1     1     2    2
     2     2     3    2
     3     2     4    1
     4     2    11    1
     5     4     9   ar
     6     4     5   ar
     7     5     6   ar
     8     5    31    1
     9     6     7   ar
    10     6    32    1
    11     7     8   ar
    12     7    33    1
    13     8     9   ar
    14     8    34    1
    15     9    10    1
    16    11    30    1
    17    11    12    1
    18    12    13    1
    19    12    35    1
    20    12    36    1
    21    13    14    1
    22    13    37    1
    23    13    38    1
    24    15    14    1
    25    14    29    1
    26    15    16    2
    27    15    17    2
    28    15    18    1
    29    18    27   ar
    30    18    19   ar
    31    19    20   ar
    32    19    39    1
    33    20    21    1
    34    20    25   ar
    35    21    22    1
    36    21    23    1
    37    21    24    1
    38    25    26   ar
    39    25    40    1
    40    26    27   ar
    41    26    41    1
    42    27    28    1
    43    29    30    1
    44    29    42    1
    45    29    43    1
    46    30    44    1
    47    30    45    1
