@<TRIPOS>MOLECULE
ZINC000012919449
 47 49 0 0 0
SMALL
GASTEIGER

@<TRIPOS>ATOM
      1 O           0.0021   -0.0041    0.0020 O.2     1  UNL1       -0.2740
      2 C          -0.0144    1.2086    0.0087 C.2     1  UNL1        0.2322
      3 N           1.1435    1.8983    0.0013 N.am    1  UNL1       -0.3099
      4 C           2.4220    1.1832   -0.0147 C.3     1  UNL1        0.0369
      5 C           3.5540    2.1779   -0.0202 C.ar    1  UNL1       -0.0303
      6 C           4.0580    2.6449   -1.2197 C.ar    1  UNL1       -0.0565
      7 C           5.0964    3.5574   -1.2247 C.ar    1  UNL1       -0.0498
      8 C           5.6304    4.0033   -0.0302 C.ar    1  UNL1        0.0548
      9 C           6.7628    4.9977   -0.0357 C.3     1  UNL1        0.4174
     10 F           6.2430    6.2964   -0.0182 F       1  UNL1       -0.1659
     11 F           7.5623    4.8002    1.0952 F       1  UNL1       -0.1659
     12 F           7.5342    4.8196   -1.1891 F       1  UNL1       -0.1659
     13 C           5.1256    3.5374    1.1693 C.ar    1  UNL1       -0.0498
     14 C           4.0846    2.6278    1.1744 C.ar    1  UNL1       -0.0565
     15 C          -1.3296    1.9443    0.0189 C.3     1  UNL1        0.1078
     16 H          -1.4016    2.5867   -0.8587 H       1  UNL1        0.0575
     17 C          -1.4458    2.7937    1.3021 C.3     1  UNL1       -0.0260
     18 C          -2.9413    2.6402    1.6861 C.3     1  UNL1       -0.0366
     19 C          -3.2216    1.1758    1.2658 C.3     1  UNL1        0.0214
     20 N          -2.4409    0.9817    0.0266 N.3     1  UNL1       -0.1647
     21 S          -2.7641   -0.1348   -1.1529 S.O2    1  UNL1        0.0615
     22 O          -1.5387   -0.3644   -1.8347 O.2     1  UNL1       -0.1528
     23 O          -3.5133   -1.1699   -0.5311 O.2     1  UNL1       -0.1528
     24 C          -3.8440    0.6319   -2.3150 C.ar    1  UNL1        0.1057
     25 C          -5.2134    0.5514   -2.1428 C.ar    1  UNL1       -0.0326
     26 C          -6.0614    1.1523   -3.0537 C.ar    1  UNL1       -0.0246
     27 C          -5.5390    1.8356   -4.1388 C.ar    1  UNL1        0.1235
     28 F          -6.3671    2.4238   -5.0296 F       1  UNL1       -0.2055
     29 C          -4.1674    1.9159   -4.3099 C.ar    1  UNL1       -0.0246
     30 C          -3.3213    1.3183   -3.3952 C.ar    1  UNL1       -0.0326
     31 H           1.1304    2.8682    0.0067 H       1  UNL1        0.1491
     32 H           2.4967    0.5526    0.8712 H       1  UNL1        0.0512
     33 H           2.4797    0.5621   -0.9086 H       1  UNL1        0.0512
     34 H           3.6407    2.2965   -2.1529 H       1  UNL1        0.0621
     35 H           5.4906    3.9217   -2.1619 H       1  UNL1        0.0623
     36 H           5.5426    3.8860    2.1026 H       1  UNL1        0.0623
     37 H           3.6902    2.2638    2.1116 H       1  UNL1        0.0621
     38 H          -0.8032    2.3958    2.0875 H       1  UNL1        0.0286
     39 H          -1.2054    3.8369    1.0972 H       1  UNL1        0.0286
     40 H          -3.0849    2.7732    2.7584 H       1  UNL1        0.0279
     41 H          -3.5630    3.3347    1.1212 H       1  UNL1        0.0279
     42 H          -2.8834    0.4874    2.0403 H       1  UNL1        0.0444
     43 H          -4.2843    1.0344    1.0691 H       1  UNL1        0.0444
     44 H          -5.6206    0.0183   -1.2964 H       1  UNL1        0.0638
     45 H          -7.1311    1.0887   -2.9194 H       1  UNL1        0.0647
     46 H          -3.7589    2.4483   -5.1561 H       1  UNL1        0.0647
     47 H          -2.2514    1.3811   -3.5283 H       1  UNL1        0.0638
@<TRIPOS>BOND
     1     1     2    2
     2     2     3   am
     3     2    15    1
     4     3     4    1
     5     3    31    1
     6     4     5    1
     7     4    32    1
     8     4    33    1
     9     5    14   ar
    10     5     6   ar
    11     6     7   ar
    12     6    34    1
    13     7     8   ar
    14     7    35    1
    15     8     9    1
    16     8    13   ar
    17     9    10    1
    18     9    11    1
    19     9    12    1
    20    13    14   ar
    21    13    36    1
    22    14    37    1
    23    15    16    1
    24    15    20    1
    25    15    17    1
    26    17    18    1
    27    17    38    1
    28    17    39    1
    29    18    19    1
    30    18    40    1
    31    18    41    1
    32    19    20    1
    33    19    42    1
    34    19    43    1
    35    21    20    1
    36    21    22    2
    37    21    23    2
    38    21    24    1
    39    24    30   ar
    40    24    25   ar
    41    25    26   ar
    42    25    44    1
    43    26    27   ar
    44    26    45    1
    45    27    28    1
    46    27    29   ar
    47    29    30   ar
    48    29    46    1
    49    30    47    1
