@<TRIPOS>MOLECULE
ZINC000408621450
 50 51 0 0 0
SMALL
GASTEIGER

@<TRIPOS>ATOM
      1 C          -0.0173    1.4248    0.0099 C.3     1  UNL1        0.0365
      2 O           0.0021   -0.0041    0.0020 O.3     1  UNL1       -0.3812
      3 C           0.6518   -0.5703   -1.1379 C.3     1  UNL1        0.0654
      4 C           0.6131   -2.0967   -1.0411 C.3     1  UNL1        0.0437
      5 H           1.0288   -2.5292   -1.9512 H       1  UNL1        0.0518
      6 C          -0.8350   -2.5604   -0.8713 C.3     1  UNL1       -0.0445
      7 N           1.4039   -2.5331    0.1124 N.am    1  UNL1       -0.3094
      8 C           1.9385   -3.7701    0.1337 C.2     1  UNL1        0.2291
      9 O           1.7649   -4.5220   -0.8019 O.2     1  UNL1       -0.2743
     10 C           2.7520   -4.2190    1.3202 C.3     1  UNL1        0.0971
     11 N           3.2178   -5.5908    1.1021 N.3     1  UNL1       -0.1635
     12 C           4.4475   -5.8351    0.3443 C.3     1  UNL1        0.0460
     13 C           5.6348   -5.7323    1.2666 C.ar    1  UNL1       -0.0316
     14 C           6.2605   -4.5139    1.4543 C.ar    1  UNL1       -0.0559
     15 C           7.3495   -4.4190    2.3002 C.ar    1  UNL1       -0.0431
     16 C           7.8134   -5.5437    2.9590 C.ar    1  UNL1        0.0410
     17 CL          9.1807   -5.4252    4.0220 Cl      1  UNL1       -0.0835
     18 C           7.1868   -6.7627    2.7708 C.ar    1  UNL1       -0.0431
     19 C           6.0944   -6.8552    1.9291 C.ar    1  UNL1       -0.0559
     20 S           2.3542   -6.8653    1.7123 S.O2    1  UNL1        0.0616
     21 O           3.2955   -7.8948    1.9829 O.2     1  UNL1       -0.1528
     22 O           1.4868   -6.3259    2.7001 O.2     1  UNL1       -0.1528
     23 C           1.3213   -7.4636    0.4162 C.ar    1  UNL1        0.1056
     24 C           0.0519   -6.9426    0.2481 C.ar    1  UNL1       -0.0340
     25 C          -0.7588   -7.4115   -0.7684 C.ar    1  UNL1       -0.0415
     26 C          -0.2996   -8.4025   -1.6177 C.ar    1  UNL1        0.0411
     27 CL         -1.3171   -8.9915   -2.8950 Cl      1  UNL1       -0.0835
     28 C           0.9709   -8.9235   -1.4489 C.ar    1  UNL1       -0.0415
     29 C           1.7827   -8.4498   -0.4356 C.ar    1  UNL1       -0.0340
     30 H           1.0053    1.8021    0.0021 H       1  UNL1        0.0523
     31 H          -0.5445    1.7859   -0.8732 H       1  UNL1        0.0523
     32 H          -0.5275    1.7763    0.9067 H       1  UNL1        0.0523
     33 H           0.1385   -0.2506   -2.0447 H       1  UNL1        0.0578
     34 H           1.6883   -0.2344   -1.1694 H       1  UNL1        0.0578
     35 H          -0.8626   -3.6479   -0.8024 H       1  UNL1        0.0248
     36 H          -1.2507   -2.1280    0.0388 H       1  UNL1        0.0248
     37 H          -1.4235   -2.2357   -1.7295 H       1  UNL1        0.0248
     38 H           1.5428   -1.9317    0.8607 H       1  UNL1        0.1491
     39 H           3.6107   -3.5589    1.4427 H       1  UNL1        0.0539
     40 H           2.1352   -4.1832    2.2182 H       1  UNL1        0.0539
     41 H           4.4126   -6.8328   -0.0932 H       1  UNL1        0.0493
     42 H           4.5386   -5.0934   -0.4493 H       1  UNL1        0.0493
     43 H           5.8985   -3.6361    0.9397 H       1  UNL1        0.0621
     44 H           7.8384   -3.4672    2.4465 H       1  UNL1        0.0632
     45 H           7.5486   -7.6410    3.2846 H       1  UNL1        0.0632
     46 H           5.6050   -7.8067    1.7823 H       1  UNL1        0.0621
     47 H          -0.3065   -6.1693    0.9113 H       1  UNL1        0.0637
     48 H          -1.7506   -7.0047   -0.8994 H       1  UNL1        0.0633
     49 H           1.3297   -9.6973   -2.1114 H       1  UNL1        0.0633
     50 H           2.7747   -8.8561   -0.3040 H       1  UNL1        0.0637
@<TRIPOS>BOND
     1     1     2    1
     2     1    30    1
     3     1    31    1
     4     1    32    1
     5     2     3    1
     6     3     4    1
     7     3    33    1
     8     3    34    1
     9     4     5    1
    10     4     6    1
    11     4     7    1
    12     6    35    1
    13     6    36    1
    14     6    37    1
    15     7     8   am
    16     7    38    1
    17     8     9    2
    18     8    10    1
    19    10    11    1
    20    10    39    1
    21    10    40    1
    22    11    12    1
    23    20    11    1
    24    12    13    1
    25    12    41    1
    26    12    42    1
    27    13    19   ar
    28    13    14   ar
    29    14    15   ar
    30    14    43    1
    31    15    16   ar
    32    15    44    1
    33    16    17    1
    34    16    18   ar
    35    18    19   ar
    36    18    45    1
    37    19    46    1
    38    20    21    2
    39    20    22    2
    40    20    23    1
    41    23    29   ar
    42    23    24   ar
    43    24    25   ar
    44    24    47    1
    45    25    26   ar
    46    25    48    1
    47    26    27    1
    48    26    28   ar
    49    28    29   ar
    50    28    49    1
    51    29    50    1
