@<TRIPOS>MOLECULE
ZINC000010753595
 40 41 0 0 0
SMALL
GASTEIGER

@<TRIPOS>ATOM
      1 C           0.3852    1.3491    0.0183 C.3     1  UNL1        0.0029
      2 N           0.3799   -0.1145   -0.0467 N.am    1  UNL1       -0.3063
      3 C           0.8531   -0.9002    1.0956 C.3     1  UNL1        0.0029
      4 C          -0.0604   -0.7381   -1.1575 C.2     1  UNL1        0.2340
      5 O          -0.3708   -0.0896   -2.1343 O.2     1  UNL1       -0.2738
      6 C          -0.1669   -2.2410   -1.1858 C.3     1  UNL1        0.1080
      7 H           0.5996   -2.6789   -0.5464 H       1  UNL1        0.0576
      8 C          -1.5660   -2.6772   -0.7020 C.3     1  UNL1       -0.0260
      9 C          -2.3401   -2.8951   -2.0289 C.3     1  UNL1       -0.0366
     10 C          -1.2294   -3.4629   -2.9474 C.3     1  UNL1        0.0214
     11 N          -0.0066   -2.7278   -2.5638 N.3     1  UNL1       -0.1647
     12 S           1.3188   -2.4899   -3.5276 S.O2    1  UNL1        0.0615
     13 O           2.3792   -2.1046   -2.6637 O.2     1  UNL1       -0.1528
     14 O           1.3917   -3.6137   -4.3942 O.2     1  UNL1       -0.1528
     15 C           0.9775   -1.0953   -4.5490 C.ar    1  UNL1        0.1055
     16 C           0.2451   -1.2523   -5.7109 C.ar    1  UNL1       -0.0348
     17 C          -0.0227   -0.1582   -6.5122 C.ar    1  UNL1       -0.0483
     18 C           0.4415    1.0929   -6.1514 C.ar    1  UNL1        0.0549
     19 C           0.1499    2.2856   -7.0253 C.3     1  UNL1        0.4174
     20 F          -1.0542    2.8743   -6.6243 F       1  UNL1       -0.1659
     21 F           1.1871    3.2167   -6.9047 F       1  UNL1       -0.1659
     22 F           0.0462    1.8730   -8.3580 F       1  UNL1       -0.1659
     23 C           1.1726    1.2501   -4.9888 C.ar    1  UNL1       -0.0483
     24 C           1.4372    0.1566   -4.1855 C.ar    1  UNL1       -0.0348
     25 H           1.3392    1.7257   -0.3508 H       1  UNL1        0.0428
     26 H          -0.4236    1.7431   -0.5971 H       1  UNL1        0.0428
     27 H           0.2440    1.6674    1.0512 H       1  UNL1        0.0428
     28 H           1.2457   -0.2297    1.8601 H       1  UNL1        0.0428
     29 H           0.0250   -1.4764    1.5082 H       1  UNL1        0.0428
     30 H           1.6406   -1.5790    0.7684 H       1  UNL1        0.0428
     31 H          -1.5055   -3.6054   -0.1339 H       1  UNL1        0.0286
     32 H          -2.0316   -1.8902   -0.1087 H       1  UNL1        0.0286
     33 H          -3.1455   -3.6178   -1.8972 H       1  UNL1        0.0279
     34 H          -2.7236   -1.9515   -2.4170 H       1  UNL1        0.0279
     35 H          -1.0997   -4.5306   -2.7703 H       1  UNL1        0.0444
     36 H          -1.4711   -3.2777   -3.9940 H       1  UNL1        0.0444
     37 H          -0.1175   -2.2298   -5.9928 H       1  UNL1        0.0637
     38 H          -0.5942   -0.2809   -7.4203 H       1  UNL1        0.0624
     39 H           1.5349    2.2276   -4.7068 H       1  UNL1        0.0624
     40 H           2.0084    0.2794   -3.2772 H       1  UNL1        0.0637
@<TRIPOS>BOND
     1     1     2    1
     2     1    25    1
     3     1    26    1
     4     1    27    1
     5     2     3    1
     6     2     4   am
     7     3    28    1
     8     3    29    1
     9     3    30    1
    10     4     5    2
    11     4     6    1
    12     6     7    1
    13     6    11    1
    14     6     8    1
    15     8     9    1
    16     8    31    1
    17     8    32    1
    18     9    10    1
    19     9    33    1
    20     9    34    1
    21    10    11    1
    22    10    35    1
    23    10    36    1
    24    12    11    1
    25    12    13    2
    26    12    14    2
    27    12    15    1
    28    15    24   ar
    29    15    16   ar
    30    16    17   ar
    31    16    37    1
    32    17    18   ar
    33    17    38    1
    34    18    19    1
    35    18    23   ar
    36    19    20    1
    37    19    21    1
    38    19    22    1
    39    23    24   ar
    40    23    39    1
    41    24    40    1
