@<TRIPOS>MOLECULE
ZINC000009691489
 37 38 0 0 0
SMALL
GASTEIGER

@<TRIPOS>ATOM
      1 C          -0.0171    1.8178   -0.0033 C.3     1  UNL1        0.0707
      2 S           0.0058    0.0040   -0.0012 S.O2    1  UNL1        0.0296
      3 O           0.8509   -0.4828    1.0323 O.2     1  UNL1       -0.1583
      4 O          -1.3065   -0.5115   -0.1782 O.2     1  UNL1       -0.1583
      5 N           0.7956   -0.4009   -1.3992 N.3     1  UNL1       -0.1695
      6 C           0.1615   -0.6186   -2.7122 C.3     1  UNL1        0.0210
      7 C           1.2846   -0.3492   -3.7446 C.3     1  UNL1       -0.0366
      8 C           2.5233   -0.9362   -3.0176 C.3     1  UNL1       -0.0260
      9 C           2.2462   -0.5966   -1.5380 C.3     1  UNL1        0.1077
     10 H           2.7763    0.3146   -1.2612 H       1  UNL1        0.0575
     11 C           2.6923   -1.7361   -0.6585 C.2     1  UNL1        0.2361
     12 O           1.8849   -2.3213    0.0320 O.2     1  UNL1       -0.2737
     13 N           3.9885   -2.1049   -0.6391 N.am    1  UNL1       -0.2842
     14 C           4.4203   -3.0972    0.2478 C.ar    1  UNL1        0.0335
     15 C           5.6801   -3.0132    0.8262 C.ar    1  UNL1       -0.0399
     16 C           6.1034   -3.9943    1.7013 C.ar    1  UNL1       -0.0484
     17 C           5.2746   -5.0597    2.0013 C.ar    1  UNL1        0.0549
     18 C           5.7399   -6.1287    2.9561 C.3     1  UNL1        0.4174
     19 F           5.3752   -5.7796    4.2608 F       1  UNL1       -0.1659
     20 F           5.1452   -7.3486    2.6163 F       1  UNL1       -0.1659
     21 F           7.1314   -6.2505    2.8777 F       1  UNL1       -0.1659
     22 C           4.0194   -5.1461    1.4274 C.ar    1  UNL1       -0.0484
     23 C           3.5879   -4.1653    0.5560 C.ar    1  UNL1       -0.0399
     24 H           1.0059    2.1941   -0.0164 H       1  UNL1        0.0479
     25 H          -0.5463    2.1735   -0.8873 H       1  UNL1        0.0479
     26 H          -0.5245    2.1758    0.8925 H       1  UNL1        0.0479
     27 H          -0.1929   -1.6460   -2.7966 H       1  UNL1        0.0444
     28 H          -0.6621    0.0807   -2.8563 H       1  UNL1        0.0444
     29 H           1.0923   -0.8782   -4.6780 H       1  UNL1        0.0279
     30 H           1.4051    0.7197   -3.9208 H       1  UNL1        0.0279
     31 H           2.5819   -2.0145   -3.1652 H       1  UNL1        0.0286
     32 H           3.4370   -0.4490   -3.3581 H       1  UNL1        0.0286
     33 H           4.6220   -1.6824   -1.2400 H       1  UNL1        0.1549
     34 H           6.3282   -2.1817    0.5918 H       1  UNL1        0.0636
     35 H           7.0830   -3.9295    2.1514 H       1  UNL1        0.0624
     36 H           3.3744   -5.9795    1.6637 H       1  UNL1        0.0624
     37 H           2.6076   -4.2333    0.1081 H       1  UNL1        0.0636
@<TRIPOS>BOND
     1     1     2    1
     2     1    24    1
     3     1    25    1
     4     1    26    1
     5     2     3    2
     6     2     4    2
     7     2     5    1
     8     5     9    1
     9     5     6    1
    10     6     7    1
    11     6    27    1
    12     6    28    1
    13     7     8    1
    14     7    29    1
    15     7    30    1
    16     8     9    1
    17     8    31    1
    18     8    32    1
    19     9    10    1
    20     9    11    1
    21    11    12    2
    22    11    13   am
    23    13    14    1
    24    13    33    1
    25    14    23   ar
    26    14    15   ar
    27    15    16   ar
    28    15    34    1
    29    16    17   ar
    30    16    35    1
    31    17    18    1
    32    17    22   ar
    33    18    19    1
    34    18    20    1
    35    18    21    1
    36    22    23   ar
    37    22    36    1
    38    23    37    1
