@<TRIPOS>MOLECULE
ZINC000026766401
 61 62 0 0 0
SMALL
GASTEIGER

@<TRIPOS>ATOM
      1 C          -0.0187    1.5258    0.0104 C.3     1  UNL1       -0.0507
      2 C           0.0021   -0.0041    0.0020 C.3     1  UNL1        0.0177
      3 N          -1.3723   -0.5112    0.0124 N.3     1  UNL1       -0.1771
      4 C          -2.1099   -0.6542   -1.2453 C.3     1  UNL1        0.0177
      5 C          -1.7727   -2.0031   -1.8836 C.3     1  UNL1       -0.0507
      6 S          -2.0922   -0.9227    1.4458 S.O2    1  UNL1        0.0608
      7 O          -3.1196   -1.8512    1.1269 O.2     1  UNL1       -0.1528
      8 O          -1.0393   -1.2108    2.3555 O.2     1  UNL1       -0.1528
      9 C          -2.8978    0.5199    2.0580 C.ar    1  UNL1        0.1055
     10 C          -2.2156    1.3954    2.8820 C.ar    1  UNL1       -0.0351
     11 C          -2.8476    2.5271    3.3622 C.ar    1  UNL1       -0.0567
     12 C          -4.1616    2.7836    3.0181 C.ar    1  UNL1       -0.0468
     13 C          -4.8508    4.0171    3.5421 C.3     1  UNL1       -0.0194
     14 C          -4.6371    5.1747    2.5647 C.3     1  UNL1        0.0279
     15 C          -5.3263    6.4082    3.0886 C.2     1  UNL1        0.2135
     16 O          -5.9290    6.3657    4.1402 O.2     1  UNL1       -0.2758
     17 N          -5.2728    7.5587    2.3886 N.am    1  UNL1       -0.3124
     18 C          -5.9428    8.7579    2.8979 C.3     1  UNL1        0.0231
     19 C          -5.0173    9.4814    3.8781 C.3     1  UNL1       -0.0345
     20 C          -5.5266   10.9067    4.1025 C.3     1  UNL1       -0.0514
     21 C          -6.7450   10.8732    5.0274 C.3     1  UNL1       -0.0530
     22 C          -7.9663   10.3878    4.2441 C.3     1  UNL1       -0.0531
     23 C          -8.0064   11.0797    2.8802 C.3     1  UNL1       -0.0530
     24 C          -7.7658   10.0472    1.7770 C.3     1  UNL1       -0.0514
     25 C          -6.2791    9.6884    1.7311 C.3     1  UNL1       -0.0345
     26 C          -4.8434    1.9088    2.1930 C.ar    1  UNL1       -0.0567
     27 C          -4.2102    0.7790    1.7096 C.ar    1  UNL1       -0.0351
     28 H           1.0039    1.9031    0.0027 H       1  UNL1        0.0243
     29 H          -0.5459    1.8868   -0.8726 H       1  UNL1        0.0243
     30 H          -0.5289    1.8773    0.9072 H       1  UNL1        0.0243
     31 H           0.5123   -0.3556   -0.8948 H       1  UNL1        0.0441
     32 H           0.5293   -0.3651    0.8851 H       1  UNL1        0.0441
     33 H          -3.1804   -0.6037   -1.0465 H       1  UNL1        0.0441
     34 H          -1.8283    0.1500   -1.9251 H       1  UNL1        0.0441
     35 H          -0.7022   -2.0536   -2.0825 H       1  UNL1        0.0243
     36 H          -2.0544   -2.8073   -1.2038 H       1  UNL1        0.0243
     37 H          -2.3215   -2.1096   -2.8194 H       1  UNL1        0.0243
     38 H          -1.1890    1.1950    3.1509 H       1  UNL1        0.0637
     39 H          -2.3149    3.2108    4.0066 H       1  UNL1        0.0621
     40 H          -5.9180    3.8210    3.6452 H       1  UNL1        0.0318
     41 H          -4.4342    4.2808    4.5142 H       1  UNL1        0.0318
     42 H          -3.5699    5.3709    2.4615 H       1  UNL1        0.0361
     43 H          -5.0537    4.9110    1.5925 H       1  UNL1        0.0361
     44 H          -4.7908    7.5927    1.5475 H       1  UNL1        0.1490
     45 H          -6.8612    8.4710    3.4101 H       1  UNL1        0.0498
     46 H          -5.0042    8.9465    4.8277 H       1  UNL1        0.0283
     47 H          -4.0085    9.5165    3.4668 H       1  UNL1        0.0283
     48 H          -4.7394   11.5060    4.5601 H       1  UNL1        0.0266
     49 H          -5.8085   11.3467    3.1459 H       1  UNL1        0.0266
     50 H          -6.5523   10.1938    5.8577 H       1  UNL1        0.0265
     51 H          -6.9356   11.8744    5.4139 H       1  UNL1        0.0265
     52 H          -7.9017    9.3090    4.1024 H       1  UNL1        0.0265
     53 H          -8.8729   10.6274    4.7997 H       1  UNL1        0.0265
     54 H          -8.9822   11.5438    2.7369 H       1  UNL1        0.0265
     55 H          -7.2307   11.8442    2.8378 H       1  UNL1        0.0265
     56 H          -8.3498    9.1506    1.9847 H       1  UNL1        0.0266
     57 H          -8.0688   10.4641    0.8166 H       1  UNL1        0.0266
     58 H          -5.6833   10.5979    1.8084 H       1  UNL1        0.0283
     59 H          -6.0554    9.1863    0.7899 H       1  UNL1        0.0283
     60 H          -5.8699    2.1094    1.9238 H       1  UNL1        0.0621
     61 H          -4.7428    0.0956    1.0650 H       1  UNL1        0.0637
@<TRIPOS>BOND
     1     1     2    1
     2     1    28    1
     3     1    29    1
     4     1    30    1
     5     2     3    1
     6     2    31    1
     7     2    32    1
     8     3     4    1
     9     6     3    1
    10     4     5    1
    11     4    33    1
    12     4    34    1
    13     5    35    1
    14     5    36    1
    15     5    37    1
    16     6     7    2
    17     6     8    2
    18     6     9    1
    19     9    27   ar
    20     9    10   ar
    21    10    11   ar
    22    10    38    1
    23    11    12   ar
    24    11    39    1
    25    12    13    1
    26    12    26   ar
    27    13    14    1
    28    13    40    1
    29    13    41    1
    30    14    15    1
    31    14    42    1
    32    14    43    1
    33    15    16    2
    34    15    17   am
    35    17    18    1
    36    17    44    1
    37    18    25    1
    38    18    19    1
    39    18    45    1
    40    19    20    1
    41    19    46    1
    42    19    47    1
    43    20    21    1
    44    20    48    1
    45    20    49    1
    46    21    22    1
    47    21    50    1
    48    21    51    1
    49    22    23    1
    50    22    52    1
    51    22    53    1
    52    23    24    1
    53    23    54    1
    54    23    55    1
    55    24    25    1
    56    24    56    1
    57    24    57    1
    58    25    58    1
    59    25    59    1
    60    26    27   ar
    61    26    60    1
    62    27    61    1
