@<TRIPOS>MOLECULE
ZINC000033625288
 55 57 0 0 0
SMALL
GASTEIGER

@<TRIPOS>ATOM
      1 C           1.0271   -5.9024  -10.0352 C.3     1  UNL1        0.0789
      2 O           1.5320   -4.5708   -9.9170 O.3     1  UNL1       -0.4936
      3 C           1.7795   -4.1139   -8.6610 C.ar    1  UNL1        0.1384
      4 C           1.5469   -4.9321   -7.5659 C.ar    1  UNL1       -0.0166
      5 C           1.7998   -4.4656   -6.2899 C.ar    1  UNL1       -0.0318
      6 C           2.2839   -3.1842   -6.1040 C.ar    1  UNL1        0.1071
      7 S           2.6051   -2.5931   -4.4755 S.O2    1  UNL1        0.0616
      8 O           2.5218   -1.1760   -4.5393 O.2     1  UNL1       -0.1528
      9 O           1.8099   -3.3797   -3.5990 O.2     1  UNL1       -0.1528
     10 N           4.1830   -2.9535   -4.1255 N.3     1  UNL1       -0.1635
     11 C           4.5361   -4.2826   -3.6202 C.3     1  UNL1        0.0971
     12 C           4.9669   -5.1583   -4.7685 C.2     1  UNL1        0.2289
     13 O           4.9779   -4.7159   -5.8977 O.2     1  UNL1       -0.2743
     14 N           5.3400   -6.4332   -4.5406 N.am    1  UNL1       -0.3117
     15 C           5.7588   -7.2846   -5.6568 C.3     1  UNL1        0.0379
     16 C           6.1276   -8.6726   -5.1292 C.3     1  UNL1        0.0742
     17 H           5.2734   -9.1241   -4.6246 H       1  UNL1        0.0611
     18 C           6.6072   -9.5794   -6.2904 C.3     1  UNL1       -0.0231
     19 C           7.4935  -10.5976   -5.5225 C.3     1  UNL1       -0.0271
     20 C           8.0977   -9.7255   -4.4010 C.3     1  UNL1        0.0482
     21 O           7.2465   -8.5841   -4.2328 O.3     1  UNL1       -0.3750
     22 C           5.2259   -1.9434   -4.3211 C.3     1  UNL1        0.0460
     23 C           5.4910   -1.2361   -3.0170 C.ar    1  UNL1       -0.0317
     24 C           4.8524   -0.0429   -2.7355 C.ar    1  UNL1       -0.0573
     25 C           5.0956    0.6058   -1.5393 C.ar    1  UNL1       -0.0615
     26 C           5.9772    0.0611   -0.6245 C.ar    1  UNL1       -0.0617
     27 C           6.6152   -1.1326   -0.9056 C.ar    1  UNL1       -0.0615
     28 C           6.3687   -1.7835   -2.0999 C.ar    1  UNL1       -0.0573
     29 C           2.5171   -2.3656   -7.1939 C.ar    1  UNL1       -0.0134
     30 C           2.2713   -2.8291   -8.4726 C.ar    1  UNL1        0.0844
     31 CL          2.5640   -1.8014   -9.8407 Cl      1  UNL1       -0.0797
     32 H           1.7435   -6.6022   -9.6049 H       1  UNL1        0.0660
     33 H           0.0789   -5.9800   -9.5032 H       1  UNL1        0.0660
     34 H           0.8736   -6.1407  -11.0877 H       1  UNL1        0.0660
     35 H           1.1680   -5.9331   -7.7101 H       1  UNL1        0.0655
     36 H           1.6186   -5.1028   -5.4369 H       1  UNL1        0.0638
     37 H           5.3534   -4.1938   -2.9045 H       1  UNL1        0.0539
     38 H           3.6700   -4.7267   -3.1296 H       1  UNL1        0.0539
     39 H           5.3312   -6.7871   -3.6375 H       1  UNL1        0.1488
     40 H           4.9415   -7.3733   -6.3726 H       1  UNL1        0.0487
     41 H           6.6249   -6.8405   -6.1475 H       1  UNL1        0.0487
     42 H           5.7662  -10.0768   -6.7736 H       1  UNL1        0.0291
     43 H           7.1949   -9.0139   -7.0135 H       1  UNL1        0.0291
     44 H           6.8877  -11.4017   -5.1048 H       1  UNL1        0.0288
     45 H           8.2760  -10.9954   -6.1687 H       1  UNL1        0.0288
     46 H           8.1391  -10.2943   -3.4720 H       1  UNL1        0.0560
     47 H           9.0998   -9.4025   -4.6830 H       1  UNL1        0.0560
     48 H           6.1403   -2.4270   -4.6646 H       1  UNL1        0.0493
     49 H           4.8955   -1.2197   -5.0662 H       1  UNL1        0.0493
     50 H           4.1636    0.3826   -3.4503 H       1  UNL1        0.0621
     51 H           4.5972    1.5384   -1.3197 H       1  UNL1        0.0618
     52 H           6.1678    0.5683    0.3098 H       1  UNL1        0.0618
     53 H           7.3042   -1.5579   -0.1910 H       1  UNL1        0.0618
     54 H           6.8671   -2.7161   -2.3196 H       1  UNL1        0.0621
     55 H           2.8953   -1.3649   -7.0460 H       1  UNL1        0.0653
@<TRIPOS>BOND
     1     1     2    1
     2     1    32    1
     3     1    33    1
     4     1    34    1
     5     2     3    1
     6     3    30   ar
     7     3     4   ar
     8     4     5   ar
     9     4    35    1
    10     5     6   ar
    11     5    36    1
    12     6     7    1
    13     6    29   ar
    14     7     8    2
    15     7     9    2
    16     7    10    1
    17    10    11    1
    18    10    22    1
    19    11    12    1
    20    11    37    1
    21    11    38    1
    22    12    13    2
    23    12    14   am
    24    14    15    1
    25    14    39    1
    26    15    16    1
    27    15    40    1
    28    15    41    1
    29    16    17    1
    30    16    21    1
    31    16    18    1
    32    18    19    1
    33    18    42    1
    34    18    43    1
    35    19    20    1
    36    19    44    1
    37    19    45    1
    38    20    21    1
    39    20    46    1
    40    20    47    1
    41    22    23    1
    42    22    48    1
    43    22    49    1
    44    23    28   ar
    45    23    24   ar
    46    24    25   ar
    47    24    50    1
    48    25    26   ar
    49    25    51    1
    50    26    27   ar
    51    26    52    1
    52    27    28   ar
    53    27    53    1
    54    28    54    1
    55    29    30   ar
    56    29    55    1
    57    30    31    1
