@<TRIPOS>MOLECULE
ZINC000022227507
 46 47 0 0 0
SMALL
GASTEIGER

@<TRIPOS>ATOM
      1 C          -0.0187    1.5258    0.0104 C.3     1  UNL1       -0.0507
      2 C           0.0021   -0.0041    0.0020 C.3     1  UNL1        0.0177
      3 N           0.7106   -0.4894    1.1889 N.3     1  UNL1       -0.1771
      4 C          -0.0062   -0.6460    2.4569 C.3     1  UNL1        0.0177
      5 C          -0.6935   -2.0126    2.4888 C.3     1  UNL1       -0.0507
      6 S           2.3218   -0.8609    1.0971 S.O2    1  UNL1        0.0608
      7 O           2.5823   -1.7795    2.1496 O.2     1  UNL1       -0.1528
      8 O           2.5905   -1.1471   -0.2686 O.2     1  UNL1       -0.1528
      9 C           3.2182    0.6060    1.4837 C.ar    1  UNL1        0.1055
     10 C           3.5687    1.4871    0.4779 C.ar    1  UNL1       -0.0351
     11 C           4.2720    2.6379    0.7812 C.ar    1  UNL1       -0.0567
     12 C           4.6242    2.9079    2.0903 C.ar    1  UNL1       -0.0458
     13 C           5.3913    4.1622    2.4209 C.3     1  UNL1       -0.0121
     14 C           4.4092    5.2965    2.7205 C.3     1  UNL1        0.0156
     15 N           5.1549    6.5159    3.0418 N.am    1  UNL1       -0.3148
     16 C           4.4932    7.6512    3.3415 C.2     1  UNL1        0.2161
     17 O           3.2805    7.6633    3.3452 O.2     1  UNL1       -0.2755
     18 C           5.2603    8.9055    3.6721 C.3     1  UNL1        0.0356
     19 C           5.1936   10.0593    2.6694 C.3     1  UNL1       -0.0412
     20 C           4.4517   10.1614    4.0036 C.3     1  UNL1       -0.0412
     21 C           4.2724    2.0275    3.0963 C.ar    1  UNL1       -0.0567
     22 C           3.5659    0.8785    2.7936 C.ar    1  UNL1       -0.0351
     23 H           1.0039    1.9031    0.0027 H       1  UNL1        0.0243
     24 H          -0.5459    1.8868   -0.8726 H       1  UNL1        0.0243
     25 H          -0.5289    1.8773    0.9072 H       1  UNL1        0.0243
     26 H          -1.0205   -0.3814    0.0098 H       1  UNL1        0.0441
     27 H           0.5123   -0.3556   -0.8948 H       1  UNL1        0.0441
     28 H           0.6997   -0.5749    3.2845 H       1  UNL1        0.0441
     29 H          -0.7557    0.1399    2.5501 H       1  UNL1        0.0441
     30 H          -1.3993   -2.0837    1.6613 H       1  UNL1        0.0243
     31 H           0.0560   -2.7985    2.3957 H       1  UNL1        0.0243
     32 H          -1.2268   -2.1291    3.4323 H       1  UNL1        0.0243
     33 H           3.2935    1.2761   -0.5449 H       1  UNL1        0.0637
     34 H           4.5465    3.3259   -0.0048 H       1  UNL1        0.0621
     35 H           6.0188    3.9848    3.2943 H       1  UNL1        0.0328
     36 H           6.0182    4.4388    1.5732 H       1  UNL1        0.0328
     37 H           3.7816    5.4739    1.8471 H       1  UNL1        0.0465
     38 H           3.7823    5.0200    3.5682 H       1  UNL1        0.0465
     39 H           6.1248    6.5062    3.0389 H       1  UNL1        0.1487
     40 H           6.1988    8.7558    4.2058 H       1  UNL1        0.0394
     41 H           6.0884   10.6688    2.5432 H       1  UNL1        0.0273
     42 H           4.5949    9.9111    1.7707 H       1  UNL1        0.0273
     43 H           3.3649   10.0803    3.9826 H       1  UNL1        0.0273
     44 H           4.8584   10.8380    4.7552 H       1  UNL1        0.0273
     45 H           4.5473    2.2386    4.1192 H       1  UNL1        0.0621
     46 H           3.2910    0.1907    3.5795 H       1  UNL1        0.0637
@<TRIPOS>BOND
     1     1     2    1
     2     1    23    1
     3     1    24    1
     4     1    25    1
     5     2     3    1
     6     2    26    1
     7     2    27    1
     8     3     4    1
     9     6     3    1
    10     4     5    1
    11     4    28    1
    12     4    29    1
    13     5    30    1
    14     5    31    1
    15     5    32    1
    16     6     7    2
    17     6     8    2
    18     6     9    1
    19     9    22   ar
    20     9    10   ar
    21    10    11   ar
    22    10    33    1
    23    11    12   ar
    24    11    34    1
    25    12    13    1
    26    12    21   ar
    27    13    14    1
    28    13    35    1
    29    13    36    1
    30    14    15    1
    31    14    37    1
    32    14    38    1
    33    15    16   am
    34    15    39    1
    35    16    17    2
    36    16    18    1
    37    18    20    1
    38    18    19    1
    39    18    40    1
    40    19    20    1
    41    19    41    1
    42    19    42    1
    43    20    43    1
    44    20    44    1
    45    21    22   ar
    46    21    45    1
    47    22    46    1
