@<TRIPOS>MOLECULE
ZINC000065363930
 49 50 0 0 0
SMALL
GASTEIGER

@<TRIPOS>ATOM
      1 C          -0.5841    1.0608    0.3003 C.3     1  UNL1       -0.0362
      2 C          -0.1441   -0.3746    0.0058 C.3     1  UNL1        0.1190
      3 H           0.3165   -0.4182   -0.9811 H       1  UNL1        0.0611
      4 C          -1.3444   -1.2851    0.0406 C.2     1  UNL1        0.2379
      5 O          -1.5637   -1.9621    1.0226 O.2     1  UNL1       -0.2735
      6 N          -2.1742   -1.3470   -1.0196 N.am    1  UNL1       -0.2898
      7 C          -1.9767   -0.4736   -2.1868 C.3     1  UNL1        0.0550
      8 C          -1.9927   -1.3403   -3.4503 C.3     1  UNL1       -0.0159
      9 N          -3.2308   -2.1289   -3.4861 N.4     1  UNL1        0.2353
     10 H          -4.0247   -1.5094   -3.4225 H       1  UNL1        0.2032
     11 C          -3.2960   -2.8776   -4.7483 C.3     1  UNL1       -0.0430
     12 C          -3.2562   -3.0713   -2.3603 C.3     1  UNL1       -0.0159
     13 C          -3.2995   -2.2943   -1.0452 C.3     1  UNL1        0.0550
     14 N           0.8251   -0.8054    1.0165 N.pl3   1  UNL1       -0.1960
     15 C           0.4541   -0.8580    2.3620 C.ar    1  UNL1        0.0522
     16 C           0.3733   -2.0815    3.0144 C.ar    1  UNL1       -0.0390
     17 C           0.0066   -2.1299    4.3452 C.ar    1  UNL1       -0.0594
     18 C          -0.2798   -0.9622    5.0279 C.ar    1  UNL1       -0.0500
     19 C          -0.2007    0.2578    4.3812 C.ar    1  UNL1        0.0566
     20 C          -0.5137    1.5279    5.1294 C.3     1  UNL1        0.4175
     21 F          -0.8556    1.2189    6.4503 F       1  UNL1       -0.1659
     22 F           0.6090    2.3626    5.1214 F       1  UNL1       -0.1659
     23 F          -1.5851    2.1814    4.5111 F       1  UNL1       -0.1659
     24 C           0.1708    0.3138    3.0525 C.ar    1  UNL1       -0.0274
     25 S           2.3603   -1.2299    0.5636 S.O2    1  UNL1        0.0432
     26 C           3.3263    0.2935    0.7550 C.3     1  UNL1        0.0738
     27 O           2.7558   -2.1956    1.5281 O.2     1  UNL1       -0.1552
     28 O           2.2381   -1.5737   -0.8098 O.2     1  UNL1       -0.1552
     29 H          -1.1506    1.0834    1.2312 H       1  UNL1        0.0253
     30 H           0.2951    1.6983    0.3945 H       1  UNL1        0.0253
     31 H          -1.2102    1.4234   -0.5149 H       1  UNL1        0.0253
     32 H          -2.7814    0.2600   -2.2356 H       1  UNL1        0.0517
     33 H          -1.0168    0.0362   -2.1045 H       1  UNL1        0.0517
     34 H          -1.9441   -0.6998   -4.3309 H       1  UNL1        0.0830
     35 H          -1.1342   -2.0118   -3.4413 H       1  UNL1        0.0830
     36 H          -2.4372   -3.5449   -4.8197 H       1  UNL1        0.0778
     37 H          -4.2147   -3.4635   -4.7762 H       1  UNL1        0.0778
     38 H          -3.2845   -2.1798   -5.5856 H       1  UNL1        0.0778
     39 H          -4.1387   -3.7063   -2.4378 H       1  UNL1        0.0830
     40 H          -2.3594   -3.6904   -2.3843 H       1  UNL1        0.0830
     41 H          -3.2163   -2.9869   -0.2077 H       1  UNL1        0.0517
     42 H          -4.2370   -1.7427   -0.9763 H       1  UNL1        0.0517
     43 H           0.5965   -2.9940    2.4816 H       1  UNL1        0.0636
     44 H          -0.0568   -3.0810    4.8530 H       1  UNL1        0.0618
     45 H          -0.5662   -1.0029    6.0684 H       1  UNL1        0.0623
     46 H           0.2324    1.2668    2.5481 H       1  UNL1        0.0642
     47 H           3.4091    0.5406    1.8134 H       1  UNL1        0.0482
     48 H           4.3223    0.1471    0.3371 H       1  UNL1        0.0482
     49 H           2.8280    1.1081    0.2295 H       1  UNL1        0.0482
@<TRIPOS>UNITY_ATOM_ATTR
9 1
charge 1
@<TRIPOS>BOND
     1     1     2    1
     2     1    29    1
     3     1    30    1
     4     1    31    1
     5     2     3    1
     6     2     4    1
     7     2    14    1
     8     4     5    2
     9     4     6   am
    10     6    13    1
    11     6     7    1
    12     7     8    1
    13     7    32    1
    14     7    33    1
    15     8     9    1
    16     8    34    1
    17     8    35    1
    18     9    10    1
    19     9    11    1
    20     9    12    1
    21    11    36    1
    22    11    37    1
    23    11    38    1
    24    12    13    1
    25    12    39    1
    26    12    40    1
    27    13    41    1
    28    13    42    1
    29    14    15    1
    30    25    14    1
    31    15    24   ar
    32    15    16   ar
    33    16    17   ar
    34    16    43    1
    35    17    18   ar
    36    17    44    1
    37    18    19   ar
    38    18    45    1
    39    19    20    1
    40    19    24   ar
    41    20    21    1
    42    20    22    1
    43    20    23    1
    44    24    46    1
    45    25    26    1
    46    25    27    2
    47    25    28    2
    48    26    47    1
    49    26    48    1
    50    26    49    1
