@<TRIPOS>MOLECULE
ZINC000003623097
 50 52 0 0 0
SMALL
GASTEIGER

@<TRIPOS>ATOM
      1 O           0.0021   -0.0041    0.0020 O.2     1  UNL1       -0.2754
      2 C          -0.0144    1.2086    0.0087 C.2     1  UNL1        0.2182
      3 N           1.1435    1.8983    0.0013 N.am    1  UNL1       -0.2796
      4 C           2.4220    1.1832   -0.0147 C.3     1  UNL1        0.2776
      5 C           2.5588    0.3570   -1.2952 C.3     1  UNL1        0.4365
      6 F           2.4831    1.2034   -2.4066 F       1  UNL1       -0.1662
      7 F           3.7923   -0.3030   -1.2948 F       1  UNL1       -0.1662
      8 F           1.5260   -0.5848   -1.3551 F       1  UNL1       -0.1662
      9 N           3.5453    2.1266    0.1196 N.am    1  UNL1       -0.2632
     10 C           4.1909    1.7974    1.2531 C.2     1  UNL1        0.3107
     11 O           5.1744    2.3812    1.6644 O.2     1  UNL1       -0.2521
     12 N           3.6292    0.7556    1.8769 N.am    1  UNL1       -0.2222
     13 C           4.1229    0.1844    3.1324 C.3     1  UNL1        0.0279
     14 C           3.4487    0.8872    4.3124 C.3     1  UNL1       -0.0113
     15 C           3.9565    0.2997    5.6039 C.ar    1  UNL1       -0.0459
     16 C           3.3111   -0.7829    6.1717 C.ar    1  UNL1       -0.0585
     17 C           3.7769   -1.3219    7.3563 C.ar    1  UNL1       -0.0615
     18 C           4.8885   -0.7786    7.9729 C.ar    1  UNL1       -0.0617
     19 C           5.5344    0.3034    7.4047 C.ar    1  UNL1       -0.0615
     20 C           5.0711    0.8397    6.2178 C.ar    1  UNL1       -0.0585
     21 C           2.5528    0.2971    1.2082 C.2     1  UNL1        0.2742
     22 O           1.8374   -0.6306    1.5202 O.2     1  UNL1       -0.2706
     23 C          -1.3296    1.9443    0.0189 C.3     1  UNL1        0.0356
     24 C          -1.4285    2.8295   -1.2251 C.3     1  UNL1       -0.0419
     25 C          -2.7637    3.5764   -1.2147 C.3     1  UNL1       -0.0524
     26 C          -3.9130    2.5665   -1.2147 C.3     1  UNL1       -0.0530
     27 C          -3.8141    1.6813    0.0293 C.3     1  UNL1       -0.0524
     28 C          -2.4789    0.9344    0.0189 C.3     1  UNL1       -0.0419
     29 H           1.1304    2.8682    0.0067 H       1  UNL1        0.1515
     30 H           3.7751    2.8449   -0.4905 H       1  UNL1        0.1530
     31 H           3.8913   -0.8802    3.1631 H       1  UNL1        0.0473
     32 H           5.2022    0.3234    3.1952 H       1  UNL1        0.0473
     33 H           3.6803    1.9519    4.2817 H       1  UNL1        0.0329
     34 H           2.3694    0.7483    4.2496 H       1  UNL1        0.0329
     35 H           2.4427   -1.2074    5.6899 H       1  UNL1        0.0620
     36 H           3.2723   -2.1672    7.8003 H       1  UNL1        0.0618
     37 H           5.2520   -1.1992    8.8989 H       1  UNL1        0.0618
     38 H           6.4026    0.7281    7.8866 H       1  UNL1        0.0618
     39 H           5.5758    1.6850    5.7738 H       1  UNL1        0.0620
     40 H          -1.3916    2.5653    0.9126 H       1  UNL1        0.0394
     41 H          -0.6097    3.5490   -1.2250 H       1  UNL1        0.0272
     42 H          -1.3664    2.2085   -2.1187 H       1  UNL1        0.0272
     43 H          -2.8257    4.1974   -0.3210 H       1  UNL1        0.0265
     44 H          -2.8342    4.2071   -2.1009 H       1  UNL1        0.0265
     45 H          -4.8643    3.0986   -1.2073 H       1  UNL1        0.0265
     46 H          -3.8510    1.9455   -2.1084 H       1  UNL1        0.0265
     47 H          -3.8761    2.3022    0.9230 H       1  UNL1        0.0265
     48 H          -4.6329    0.9618    0.0292 H       1  UNL1        0.0265
     49 H          -2.4169    0.3134   -0.8748 H       1  UNL1        0.0272
     50 H          -2.4084    0.3037    0.9051 H       1  UNL1        0.0272
@<TRIPOS>BOND
     1     1     2    2
     2     2     3   am
     3     2    23    1
     4     3    29    1
     5     4     3    1
     6     4    21    1
     7     4     5    1
     8     4     9    1
     9     5     6    1
    10     5     7    1
    11     5     8    1
    12     9    10   am
    13     9    30    1
    14    10    11    2
    15    10    12   am
    16    12    13    1
    17    12    21   am
    18    13    14    1
    19    13    31    1
    20    13    32    1
    21    14    15    1
    22    14    33    1
    23    14    34    1
    24    15    20   ar
    25    15    16   ar
    26    16    17   ar
    27    16    35    1
    28    17    18   ar
    29    17    36    1
    30    18    19   ar
    31    18    37    1
    32    19    20   ar
    33    19    38    1
    34    20    39    1
    35    21    22    2
    36    23    28    1
    37    23    24    1
    38    23    40    1
    39    24    25    1
    40    24    41    1
    41    24    42    1
    42    25    26    1
    43    25    43    1
    44    25    44    1
    45    26    27    1
    46    26    45    1
    47    26    46    1
    48    27    28    1
    49    27    47    1
    50    27    48    1
    51    28    49    1
    52    28    50    1
