@<TRIPOS>MOLECULE
ZINC000028648053
 55 57 0 0 0
SMALL
GASTEIGER

@<TRIPOS>ATOM
      1 C          -0.0647    1.5417    0.0237 C.3     1  UNL1       -0.0507
      2 C          -0.0456    0.0118    0.0196 C.3     1  UNL1        0.0177
      3 N           0.6479   -0.4647   -1.1796 N.3     1  UNL1       -0.1771
      4 C           2.1078   -0.5865   -1.1818 C.3     1  UNL1        0.0177
      5 C           2.5076   -1.9401   -0.5912 C.3     1  UNL1       -0.0507
      6 S          -0.2184   -0.8658   -2.5327 S.O2    1  UNL1        0.0608
      7 O           0.5898   -1.7700   -3.2733 O.2     1  UNL1       -0.1528
      8 O          -1.5314   -1.1807   -2.0899 O.2     1  UNL1       -0.1528
      9 C          -0.3600    0.5919   -3.5124 C.ar    1  UNL1        0.1055
     10 C          -1.4286    1.4489   -3.3260 C.ar    1  UNL1       -0.0351
     11 C          -1.5397    2.5924   -4.0946 C.ar    1  UNL1       -0.0567
     12 C          -0.5820    2.8793   -5.0493 C.ar    1  UNL1       -0.0468
     13 C          -0.7033    4.1258   -5.8875 C.3     1  UNL1       -0.0194
     14 C           0.0148    5.2822   -5.1889 C.3     1  UNL1        0.0282
     15 C          -0.1066    6.5286   -6.0271 C.2     1  UNL1        0.2175
     16 O          -0.7083    6.4954   -7.0797 O.2     1  UNL1       -0.2755
     17 N           0.4534    7.6803   -5.6071 N.am    1  UNL1       -0.2854
     18 C           0.4246    8.8141   -6.4297 C.ar    1  UNL1        0.0371
     19 C           1.4977    9.6943   -6.4367 C.ar    1  UNL1       -0.0368
     20 C           1.4689   10.8138   -7.2462 C.ar    1  UNL1       -0.0145
     21 C           0.3691   11.0614   -8.0537 C.ar    1  UNL1        0.1622
     22 O           0.3549   12.1745   -8.8385 O.3     1  UNL1       -0.4849
     23 C          -0.5970   12.1961   -9.9077 C.3     1  UNL1        0.1237
     24 C          -1.9508   11.7297   -9.3557 C.3     1  UNL1        0.1237
     25 O          -1.7919   10.4032   -8.8409 O.3     1  UNL1       -0.4849
     26 C          -0.7058   10.1795   -8.0515 C.ar    1  UNL1        0.1638
     27 C          -0.6747    9.0546   -7.2423 C.ar    1  UNL1        0.0049
     28 C           0.4873    2.0231   -5.2347 C.ar    1  UNL1       -0.0567
     29 C           0.6004    0.8815   -4.4635 C.ar    1  UNL1       -0.0351
     30 H           0.9583    1.9178    0.0221 H       1  UNL1        0.0243
     31 H          -0.5853    1.9009   -0.8639 H       1  UNL1        0.0243
     32 H          -0.5807    1.8962    0.9160 H       1  UNL1        0.0243
     33 H           0.4750   -0.3475    0.9073 H       1  UNL1        0.0441
     34 H          -1.0687   -0.3643    0.0213 H       1  UNL1        0.0441
     35 H           2.4770   -0.5130   -2.2047 H       1  UNL1        0.0441
     36 H           2.5400    0.2139   -0.5812 H       1  UNL1        0.0441
     37 H           3.5938   -2.0307   -0.5928 H       1  UNL1        0.0243
     38 H           2.1384   -2.0135    0.4317 H       1  UNL1        0.0243
     39 H           2.0754   -2.7404   -1.1918 H       1  UNL1        0.0243
     40 H          -2.1768    1.2247   -2.5801 H       1  UNL1        0.0637
     41 H          -2.3749    3.2616   -3.9494 H       1  UNL1        0.0621
     42 H          -0.2497    3.9530   -6.8634 H       1  UNL1        0.0318
     43 H          -1.7564    4.3764   -6.0156 H       1  UNL1        0.0318
     44 H          -0.4389    5.4550   -4.2129 H       1  UNL1        0.0362
     45 H           1.0678    5.0316   -5.0608 H       1  UNL1        0.0362
     46 H           0.8764    7.7243   -4.7353 H       1  UNL1        0.1548
     47 H           2.3557    9.5044   -5.8087 H       1  UNL1        0.0637
     48 H           2.3047   11.4977   -7.2497 H       1  UNL1        0.0656
     49 H          -0.6886   13.2097  -10.2978 H       1  UNL1        0.0731
     50 H          -0.2727   11.5238  -10.7021 H       1  UNL1        0.0731
     51 H          -2.2720   12.3980   -8.5568 H       1  UNL1        0.0731
     52 H          -2.6925   11.7276  -10.1545 H       1  UNL1        0.0731
     53 H          -1.5077    8.3673   -7.2411 H       1  UNL1        0.0674
     54 H           1.2357    2.2474   -5.9804 H       1  UNL1        0.0621
     55 H           1.4358    0.2125   -4.6084 H       1  UNL1        0.0637
@<TRIPOS>BOND
     1     1     2    1
     2     1    30    1
     3     1    31    1
     4     1    32    1
     5     2     3    1
     6     2    33    1
     7     2    34    1
     8     3     4    1
     9     6     3    1
    10     4     5    1
    11     4    35    1
    12     4    36    1
    13     5    37    1
    14     5    38    1
    15     5    39    1
    16     6     7    2
    17     6     8    2
    18     6     9    1
    19     9    29   ar
    20     9    10   ar
    21    10    11   ar
    22    10    40    1
    23    11    12   ar
    24    11    41    1
    25    12    13    1
    26    12    28   ar
    27    13    14    1
    28    13    42    1
    29    13    43    1
    30    14    15    1
    31    14    44    1
    32    14    45    1
    33    15    16    2
    34    15    17   am
    35    17    18    1
    36    17    46    1
    37    18    27   ar
    38    18    19   ar
    39    19    20   ar
    40    19    47    1
    41    20    21   ar
    42    20    48    1
    43    21    26   ar
    44    21    22    1
    45    22    23    1
    46    23    24    1
    47    23    49    1
    48    23    50    1
    49    24    25    1
    50    24    51    1
    51    24    52    1
    52    25    26    1
    53    26    27   ar
    54    27    53    1
    55    28    29   ar
    56    28    54    1
    57    29    55    1
