@<TRIPOS>MOLECULE
ZINC000089904835
 51 53 0 0 0
SMALL
GASTEIGER

@<TRIPOS>ATOM
      1 C           7.9262   -5.8079   -1.7298 C.3     1  UNL1        0.0788
      2 O           7.4406   -5.8723   -3.0723 O.3     1  UNL1       -0.4951
      3 C           6.2526   -5.2642   -3.3284 C.ar    1  UNL1        0.1201
      4 C           5.5710   -4.6139   -2.3100 C.ar    1  UNL1       -0.0196
      5 C           4.3637   -3.9962   -2.5730 C.ar    1  UNL1       -0.0524
      6 C           3.8343   -4.0259   -3.8500 C.ar    1  UNL1       -0.0146
      7 C           2.5169   -3.3516   -4.1340 C.3     1  UNL1        0.1052
      8 C           2.7583   -2.0910   -4.9668 C.3     1  UNL1       -0.0303
      9 O           1.8887   -2.9949   -2.9010 O.3     1  UNL1       -0.3826
     10 C           1.6105   -4.3095   -4.9097 C.3     1  UNL1        0.0645
     11 H           1.3754   -5.1776   -4.2939 H       1  UNL1        0.0512
     12 C           2.3127   -4.7613   -6.2075 C.3     1  UNL1       -0.0315
     13 C           1.1515   -4.7988   -7.2360 C.3     1  UNL1       -0.0370
     14 C           0.2866   -3.6002   -6.7723 C.3     1  UNL1        0.0210
     15 N           0.3706   -3.6210   -5.2974 N.3     1  UNL1       -0.1705
     16 S          -0.7447   -2.9745   -4.2580 S.O2    1  UNL1        0.0612
     17 O          -0.0154   -2.1905   -3.3238 O.2     1  UNL1       -0.1528
     18 O          -1.7889   -2.4491   -5.0660 O.2     1  UNL1       -0.1528
     19 C          -1.4447   -4.3105   -3.3471 C.ar    1  UNL1        0.1055
     20 C          -2.5649   -4.9626   -3.8274 C.ar    1  UNL1       -0.0348
     21 C          -3.1141   -6.0108   -3.1128 C.ar    1  UNL1       -0.0483
     22 C          -2.5427   -6.4072   -1.9181 C.ar    1  UNL1        0.0549
     23 C          -3.1416   -7.5495   -1.1389 C.3     1  UNL1        0.4174
     24 F          -2.5550   -8.7517   -1.5485 F       1  UNL1       -0.1659
     25 F          -2.9057   -7.3570    0.2266 F       1  UNL1       -0.1659
     26 F          -4.5203   -7.6004   -1.3712 F       1  UNL1       -0.1659
     27 C          -1.4216   -5.7560   -1.4385 C.ar    1  UNL1       -0.0483
     28 C          -0.8702   -4.7103   -2.1550 C.ar    1  UNL1       -0.0348
     29 C           4.5118   -4.6730   -4.8668 C.ar    1  UNL1       -0.0524
     30 C           5.7220   -5.2877   -4.6101 C.ar    1  UNL1       -0.0196
     31 H           8.0628   -4.7654   -1.4425 H       1  UNL1        0.0660
     32 H           7.2062   -6.2781   -1.0601 H       1  UNL1        0.0660
     33 H           8.8801   -6.3312   -1.6630 H       1  UNL1        0.0660
     34 H           5.9837   -4.5910   -1.3122 H       1  UNL1        0.0654
     35 H           3.8327   -3.4898   -1.7805 H       1  UNL1        0.0622
     36 H           3.2374   -2.3631   -5.9073 H       1  UNL1        0.0261
     37 H           1.8054   -1.6033   -5.1723 H       1  UNL1        0.0261
     38 H           3.4040   -1.4086   -4.4142 H       1  UNL1        0.0261
     39 H           1.7053   -3.7467   -2.3211 H       1  UNL1        0.2107
     40 H           3.0707   -4.0379   -6.5078 H       1  UNL1        0.0282
     41 H           2.7508   -5.7518   -6.0843 H       1  UNL1        0.0282
     42 H           1.5221   -4.6443   -8.2494 H       1  UNL1        0.0279
     43 H           0.5952   -5.7333   -7.1633 H       1  UNL1        0.0279
     44 H           0.6913   -2.6666   -7.1634 H       1  UNL1        0.0444
     45 H          -0.7466   -3.7310   -7.0940 H       1  UNL1        0.0444
     46 H          -3.0113   -4.6529   -4.7608 H       1  UNL1        0.0637
     47 H          -3.9897   -6.5198   -3.4878 H       1  UNL1        0.0624
     48 H          -0.9750   -6.0659   -0.5053 H       1  UNL1        0.0624
     49 H           0.0056   -4.2015   -1.7803 H       1  UNL1        0.0637
     50 H           4.0964   -4.6945   -5.8635 H       1  UNL1        0.0622
     51 H           6.2509   -5.7930   -5.4047 H       1  UNL1        0.0654
@<TRIPOS>BOND
     1     1     2    1
     2     1    31    1
     3     1    32    1
     4     1    33    1
     5     2     3    1
     6     3    30   ar
     7     3     4   ar
     8     4     5   ar
     9     4    34    1
    10     5     6   ar
    11     5    35    1
    12     6    29   ar
    13     7     6    1
    14     7     8    1
    15     7     9    1
    16     7    10    1
    17     8    36    1
    18     8    37    1
    19     8    38    1
    20     9    39    1
    21    10    11    1
    22    10    15    1
    23    10    12    1
    24    12    13    1
    25    12    40    1
    26    12    41    1
    27    13    14    1
    28    13    42    1
    29    13    43    1
    30    14    15    1
    31    14    44    1
    32    14    45    1
    33    16    15    1
    34    16    17    2
    35    16    18    2
    36    16    19    1
    37    19    28   ar
    38    19    20   ar
    39    20    21   ar
    40    20    46    1
    41    21    22   ar
    42    21    47    1
    43    22    23    1
    44    22    27   ar
    45    23    24    1
    46    23    25    1
    47    23    26    1
    48    27    28   ar
    49    27    48    1
    50    28    49    1
    51    29    30   ar
    52    29    50    1
    53    30    51    1
