@<TRIPOS>MOLECULE
ZINC000108268454
 60 62 0 0 0
SMALL
GASTEIGER

@<TRIPOS>ATOM
      1 C           1.0224   -5.9028  -10.0326 C.3     1  UNL1        0.0788
      2 O           1.5278   -4.5714   -9.9145 O.3     1  UNL1       -0.4948
      3 C           1.7761   -4.1148   -8.6588 C.ar    1  UNL1        0.1231
      4 C           1.5436   -4.9334   -7.5633 C.ar    1  UNL1       -0.0178
      5 C           1.7973   -4.4671   -6.2877 C.ar    1  UNL1       -0.0319
      6 C           2.2820   -3.1857   -6.1026 C.ar    1  UNL1        0.1060
      7 S           2.6039   -2.5938   -4.4745 S.O2    1  UNL1        0.0616
      8 O           2.5210   -1.1767   -4.5391 O.2     1  UNL1       -0.1528
      9 O           1.8088   -3.3797   -3.5973 O.2     1  UNL1       -0.1528
     10 N           4.1819   -2.9545   -4.1249 N.3     1  UNL1       -0.1635
     11 C           4.5348   -4.2833   -3.6191 C.3     1  UNL1        0.0971
     12 C           4.9649   -5.1598   -4.7671 C.2     1  UNL1        0.2290
     13 O           4.9756   -4.7180   -5.8965 O.2     1  UNL1       -0.2743
     14 N           5.3378   -6.4347   -4.5386 N.am    1  UNL1       -0.3114
     15 C           5.7559   -7.2868   -5.6546 C.3     1  UNL1        0.0232
     16 C           7.2412   -7.0584   -5.9419 C.3     1  UNL1       -0.0345
     17 C           7.6779   -7.9483   -7.1074 C.3     1  UNL1       -0.0514
     18 C           7.4490   -9.4162   -6.7418 C.3     1  UNL1       -0.0529
     19 C           5.9637   -9.6446   -6.4545 C.3     1  UNL1       -0.0514
     20 C           5.5270   -8.7547   -5.2890 C.3     1  UNL1       -0.0345
     21 C           5.2249   -1.9447   -4.3215 C.3     1  UNL1        0.0460
     22 C           5.4908   -1.2368   -3.0179 C.ar    1  UNL1       -0.0317
     23 C           4.8526   -0.0433   -2.7368 C.ar    1  UNL1       -0.0573
     24 C           5.0964    0.6060   -1.5410 C.ar    1  UNL1       -0.0615
     25 C           5.9782    0.0616   -0.6262 C.ar    1  UNL1       -0.0617
     26 C           6.6158   -1.1324   -0.9069 C.ar    1  UNL1       -0.0615
     27 C           6.3686   -1.7839   -2.1008 C.ar    1  UNL1       -0.0573
     28 C           2.5149   -2.3678   -7.1931 C.ar    1  UNL1       -0.0290
     29 C           2.2679   -2.8311   -8.4706 C.ar    1  UNL1       -0.0070
     30 C           2.5225   -1.9394   -9.6586 C.3     1  UNL1       -0.0362
     31 H           1.7389   -6.6028   -9.6028 H       1  UNL1        0.0660
     32 H           0.0745   -5.9802   -9.5001 H       1  UNL1        0.0660
     33 H           0.8684   -6.1409  -11.0851 H       1  UNL1        0.0660
     34 H           1.1644   -5.9343   -7.7074 H       1  UNL1        0.0655
     35 H           1.6165   -5.1041   -5.4345 H       1  UNL1        0.0638
     36 H           5.3524   -4.1944   -2.9037 H       1  UNL1        0.0539
     37 H           3.6688   -4.7269   -3.1279 H       1  UNL1        0.0539
     38 H           5.3292   -6.7880   -3.6353 H       1  UNL1        0.1490
     39 H           5.1719   -7.0376   -6.5406 H       1  UNL1        0.0498
     40 H           7.4043   -6.0126   -6.2024 H       1  UNL1        0.0283
     41 H           7.8252   -7.3075   -5.0559 H       1  UNL1        0.0283
     42 H           7.0939   -7.6992   -7.9934 H       1  UNL1        0.0266
     43 H           8.7361   -7.7856   -7.3121 H       1  UNL1        0.0266
     44 H           7.7601  -10.0502   -7.5721 H       1  UNL1        0.0265
     45 H           8.0330   -9.6653   -5.8558 H       1  UNL1        0.0265
     46 H           5.3797   -9.3955   -7.3405 H       1  UNL1        0.0266
     47 H           5.8006  -10.6904   -6.1940 H       1  UNL1        0.0266
     48 H           6.1110   -9.0038   -4.4030 H       1  UNL1        0.0283
     49 H           4.4688   -8.9174   -5.0843 H       1  UNL1        0.0283
     50 H           6.1391   -2.4287   -4.6651 H       1  UNL1        0.0493
     51 H           4.8945   -1.2213   -5.0669 H       1  UNL1        0.0493
     52 H           4.1636    0.3821   -3.4515 H       1  UNL1        0.0621
     53 H           4.5983    1.5388   -1.3217 H       1  UNL1        0.0618
     54 H           6.1693    0.5692    0.3077 H       1  UNL1        0.0618
     55 H           7.3050   -1.5576   -0.1923 H       1  UNL1        0.0618
     56 H           6.8667   -2.7167   -2.3202 H       1  UNL1        0.0621
     57 H           2.8939   -1.3672   -7.0459 H       1  UNL1        0.0641
     58 H           3.5473   -2.0773  -10.0033 H       1  UNL1        0.0279
     59 H           1.8314   -2.1972  -10.4611 H       1  UNL1        0.0279
     60 H           2.3729   -0.8989   -9.3705 H       1  UNL1        0.0279
@<TRIPOS>BOND
     1     1     2    1
     2     1    31    1
     3     1    32    1
     4     1    33    1
     5     2     3    1
     6     3    29   ar
     7     3     4   ar
     8     4     5   ar
     9     4    34    1
    10     5     6   ar
    11     5    35    1
    12     6     7    1
    13     6    28   ar
    14     7     8    2
    15     7     9    2
    16     7    10    1
    17    10    11    1
    18    10    21    1
    19    11    12    1
    20    11    36    1
    21    11    37    1
    22    12    13    2
    23    12    14   am
    24    14    15    1
    25    14    38    1
    26    15    20    1
    27    15    16    1
    28    15    39    1
    29    16    17    1
    30    16    40    1
    31    16    41    1
    32    17    18    1
    33    17    42    1
    34    17    43    1
    35    18    19    1
    36    18    44    1
    37    18    45    1
    38    19    20    1
    39    19    46    1
    40    19    47    1
    41    20    48    1
    42    20    49    1
    43    21    22    1
    44    21    50    1
    45    21    51    1
    46    22    27   ar
    47    22    23   ar
    48    23    24   ar
    49    23    52    1
    50    24    25   ar
    51    24    53    1
    52    25    26   ar
    53    25    54    1
    54    26    27   ar
    55    26    55    1
    56    27    56    1
    57    28    29   ar
    58    28    57    1
    59    29    30    1
    60    30    58    1
    61    30    59    1
    62    30    60    1
