@<TRIPOS>MOLECULE
ZINC000072134728
 47 48 0 0 0
SMALL
GASTEIGER

@<TRIPOS>ATOM
      1 C          -0.0187    1.5258    0.0104 C.3     1  UNL1       -0.0389
      2 C           0.0021   -0.0041    0.0020 C.3     1  UNL1        0.0537
      3 C           0.7421   -0.5109    1.2415 C.3     1  UNL1       -0.0389
      4 O          -1.3386   -0.4987    0.0122 O.3     1  UNL1       -0.3679
      5 C          -1.8963   -0.6929   -1.2891 C.3     1  UNL1        0.1242
      6 C          -3.3046   -1.2135   -1.1594 C.2     1  UNL1        0.2414
      7 O          -3.7834   -1.3999   -0.0609 O.2     1  UNL1       -0.2731
      8 N          -4.0319   -1.4720   -2.2643 N.am    1  UNL1       -0.2989
      9 C          -3.4634   -1.2569   -3.6020 C.3     1  UNL1        0.0148
     10 C          -3.6098   -2.5480   -4.4133 C.3     1  UNL1       -0.0365
     11 C          -5.0779   -2.9803   -4.4163 C.3     1  UNL1       -0.0403
     12 C          -5.5328   -3.2572   -2.9816 C.3     1  UNL1        0.0379
     13 H          -4.9056   -4.0343   -2.5446 H       1  UNL1        0.0396
     14 C          -6.9687   -3.7146   -2.9886 C.2     1  UNL1        0.1677
     15 O          -7.7017   -3.3970   -3.9008 O.2     1  UNL1       -0.2917
     16 C          -7.4813   -4.5467   -1.8883 C.ar    1  UNL1        0.0178
     17 C          -6.6406   -4.9104   -0.8315 C.ar    1  UNL1       -0.0507
     18 C          -7.1283   -5.6903    0.1956 C.ar    1  UNL1       -0.0495
     19 C          -8.4460   -6.1135    0.1824 C.ar    1  UNL1        0.0548
     20 C          -8.9709   -6.9656    1.3090 C.3     1  UNL1        0.4174
     21 F          -9.4891   -6.1421    2.3143 F       1  UNL1       -0.1659
     22 F          -9.9809   -7.8052    0.8272 F       1  UNL1       -0.1659
     23 F          -7.9300   -7.7406    1.8316 F       1  UNL1       -0.1659
     24 C          -9.2843   -5.7578   -0.8599 C.ar    1  UNL1       -0.0495
     25 C          -8.8132   -4.9732   -1.8913 C.ar    1  UNL1       -0.0507
     26 C          -5.4061   -1.9799   -2.1540 C.3     1  UNL1        0.0246
     27 H           1.0039    1.9031    0.0027 H       1  UNL1        0.0254
     28 H          -0.5459    1.8868   -0.8726 H       1  UNL1        0.0254
     29 H          -0.5289    1.8773    0.9072 H       1  UNL1        0.0254
     30 H           0.5123   -0.3556   -0.8948 H       1  UNL1        0.0590
     31 H           0.2319   -0.1594    2.1383 H       1  UNL1        0.0254
     32 H           0.7568   -1.6008    1.2356 H       1  UNL1        0.0254
     33 H           1.7647   -0.1336    1.2338 H       1  UNL1        0.0254
     34 H          -1.9077    0.2563   -1.8248 H       1  UNL1        0.0657
     35 H          -1.2917   -1.4136   -1.8397 H       1  UNL1        0.0657
     36 H          -3.9988   -0.4491   -4.1009 H       1  UNL1        0.0464
     37 H          -2.4082   -0.9986   -3.5134 H       1  UNL1        0.0464
     38 H          -3.2798   -2.3735   -5.4374 H       1  UNL1        0.0281
     39 H          -3.0007   -3.3318   -3.9629 H       1  UNL1        0.0281
     40 H          -5.6894   -2.1859   -4.8442 H       1  UNL1        0.0273
     41 H          -5.1887   -3.8853   -5.0135 H       1  UNL1        0.0273
     42 H          -5.6119   -4.5815   -0.8202 H       1  UNL1        0.0625
     43 H          -6.4804   -5.9720    1.0124 H       1  UNL1        0.0623
     44 H         -10.3113   -6.0919   -0.8631 H       1  UNL1        0.0623
     45 H          -9.4685   -4.6964   -2.7039 H       1  UNL1        0.0625
     46 H          -5.6344   -2.1965   -1.1104 H       1  UNL1        0.0471
     47 H          -6.0987   -1.2285   -2.5334 H       1  UNL1        0.0471
@<TRIPOS>BOND
     1     1     2    1
     2     1    27    1
     3     1    28    1
     4     1    29    1
     5     2     3    1
     6     2     4    1
     7     2    30    1
     8     3    31    1
     9     3    32    1
    10     3    33    1
    11     4     5    1
    12     5     6    1
    13     5    34    1
    14     5    35    1
    15     6     7    2
    16     6     8   am
    17     8    26    1
    18     8     9    1
    19     9    10    1
    20     9    36    1
    21     9    37    1
    22    10    11    1
    23    10    38    1
    24    10    39    1
    25    11    12    1
    26    11    40    1
    27    11    41    1
    28    12    13    1
    29    12    14    1
    30    12    26    1
    31    14    15    2
    32    14    16    1
    33    16    25   ar
    34    16    17   ar
    35    17    18   ar
    36    17    42    1
    37    18    19   ar
    38    18    43    1
    39    19    20    1
    40    19    24   ar
    41    20    21    1
    42    20    22    1
    43    20    23    1
    44    24    25   ar
    45    24    44    1
    46    25    45    1
    47    26    46    1
    48    26    47    1
