@<TRIPOS>MOLECULE
ZINC000059444140
 56 58 0 0 0
SMALL
GASTEIGER

@<TRIPOS>ATOM
      1 C          -0.0184    1.5028    0.0103 C.3     1  UNL1       -0.0397
      2 C           0.0021   -0.0041    0.0020 C.ar    1  UNL1       -0.0503
      3 C           0.0057   -0.6887   -1.1989 C.ar    1  UNL1       -0.0570
      4 C           0.0245   -2.0709   -1.2065 C.ar    1  UNL1       -0.0351
      5 C           0.0400   -2.7685   -0.0132 C.ar    1  UNL1        0.1055
      6 S           0.0633   -4.5303   -0.0229 S.O2    1  UNL1        0.0613
      7 O          -0.4690   -4.9455    1.2275 O.2     1  UNL1       -0.1528
      8 O          -0.4824   -4.9319   -1.2719 O.2     1  UNL1       -0.1528
      9 N           1.6514   -4.9995   -0.0340 N.3     1  UNL1       -0.1675
     10 C           2.3607   -5.2139    1.2298 C.3     1  UNL1        0.0250
     11 C           2.3045   -6.6971    1.6009 C.3     1  UNL1       -0.0132
     12 C           3.0341   -6.9177    2.9009 C.ar    1  UNL1       -0.0461
     13 C           4.3868   -7.2026    2.8947 C.ar    1  UNL1       -0.0585
     14 C           5.0560   -7.4049    4.0872 C.ar    1  UNL1       -0.0615
     15 C           4.3727   -7.3219    5.2860 C.ar    1  UNL1       -0.0617
     16 C           3.0203   -7.0361    5.2923 C.ar    1  UNL1       -0.0615
     17 C           2.3519   -6.8295    4.1000 C.ar    1  UNL1       -0.0585
     18 C           2.3471   -5.2001   -1.3075 C.3     1  UNL1        0.0968
     19 C           3.0899   -3.9422   -1.6778 C.2     1  UNL1        0.2290
     20 O           3.0428   -2.9735   -0.9496 O.2     1  UNL1       -0.2743
     21 N           3.8065   -3.8937   -2.8182 N.am    1  UNL1       -0.3114
     22 C           4.5286   -2.6709   -3.1782 C.3     1  UNL1        0.0232
     23 C           5.9373   -2.6847   -2.5497 C.3     1  UNL1       -0.0345
     24 C           6.8500   -3.2319   -3.6751 C.3     1  UNL1       -0.0513
     25 C           6.2509   -2.5824   -4.9472 C.3     1  UNL1       -0.0513
     26 C           4.7279   -2.6059   -4.7026 C.3     1  UNL1       -0.0345
     27 C           0.0378   -2.0839    1.1877 C.ar    1  UNL1       -0.0351
     28 C           0.0229   -0.7016    1.1953 C.ar    1  UNL1       -0.0570
     29 H           1.0042    1.8801    0.0026 H       1  UNL1        0.0278
     30 H          -0.5455    1.8639   -0.8728 H       1  UNL1        0.0278
     31 H          -0.5286    1.8543    0.9071 H       1  UNL1        0.0278
     32 H          -0.0064   -0.1436   -2.1312 H       1  UNL1        0.0621
     33 H           0.0266   -2.6057   -2.1448 H       1  UNL1        0.0637
     34 H           3.4005   -4.9060    1.1197 H       1  UNL1        0.0447
     35 H           1.8886   -4.6246    2.0159 H       1  UNL1        0.0447
     36 H           1.2647   -7.0050    1.7111 H       1  UNL1        0.0326
     37 H           2.7766   -7.2865    0.8148 H       1  UNL1        0.0326
     38 H           4.9206   -7.2675    1.9581 H       1  UNL1        0.0620
     39 H           6.1127   -7.6282    4.0822 H       1  UNL1        0.0618
     40 H           4.8955   -7.4807    6.2176 H       1  UNL1        0.0618
     41 H           2.4863   -6.9716    6.2288 H       1  UNL1        0.0618
     42 H           1.2953   -6.6062    4.1049 H       1  UNL1        0.0620
     43 H           3.0540   -6.0240   -1.2095 H       1  UNL1        0.0539
     44 H           1.6206   -5.4353   -2.0853 H       1  UNL1        0.0539
     45 H           3.8442   -4.6685   -3.4007 H       1  UNL1        0.1490
     46 H           3.9750   -1.7964   -2.8364 H       1  UNL1        0.0498
     47 H           6.2401   -1.6757   -2.2698 H       1  UNL1        0.0283
     48 H           5.9621   -3.3456   -1.6833 H       1  UNL1        0.0283
     49 H           7.8811   -2.9111   -3.5266 H       1  UNL1        0.0266
     50 H           6.7866   -4.3187   -3.7298 H       1  UNL1        0.0266
     51 H           6.6043   -1.5568   -5.0545 H       1  UNL1        0.0266
     52 H           6.5045   -3.1686   -5.8305 H       1  UNL1        0.0266
     53 H           4.2875   -3.4841   -5.1745 H       1  UNL1        0.0283
     54 H           4.2718   -1.6994   -5.1004 H       1  UNL1        0.0283
     55 H           0.0503   -2.6289    2.1200 H       1  UNL1        0.0637
     56 H           0.0211   -0.1667    2.1335 H       1  UNL1        0.0621
@<TRIPOS>BOND
     1     1     2    1
     2     1    29    1
     3     1    30    1
     4     1    31    1
     5     2    28   ar
     6     2     3   ar
     7     3     4   ar
     8     3    32    1
     9     4     5   ar
    10     4    33    1
    11     5     6    1
    12     5    27   ar
    13     6     7    2
    14     6     8    2
    15     6     9    1
    16     9    10    1
    17     9    18    1
    18    10    11    1
    19    10    34    1
    20    10    35    1
    21    11    12    1
    22    11    36    1
    23    11    37    1
    24    12    17   ar
    25    12    13   ar
    26    13    14   ar
    27    13    38    1
    28    14    15   ar
    29    14    39    1
    30    15    16   ar
    31    15    40    1
    32    16    17   ar
    33    16    41    1
    34    17    42    1
    35    18    19    1
    36    18    43    1
    37    18    44    1
    38    19    20    2
    39    19    21   am
    40    21    22    1
    41    21    45    1
    42    22    26    1
    43    22    23    1
    44    22    46    1
    45    23    24    1
    46    23    47    1
    47    23    48    1
    48    24    25    1
    49    24    49    1
    50    24    50    1
    51    25    26    1
    52    25    51    1
    53    25    52    1
    54    26    53    1
    55    26    54    1
    56    27    28   ar
    57    27    55    1
    58    28    56    1
