@<TRIPOS>MOLECULE
ZINC000013656166
 51 53 0 0 0
SMALL
GASTEIGER

@<TRIPOS>ATOM
      1 C          -0.0730    0.8713    0.6117 C.3     1  UNL1        0.0788
      2 O           0.0001   -0.5494    0.4763 O.3     1  UNL1       -0.4951
      3 C           0.5887   -1.0324   -0.6493 C.ar    1  UNL1        0.1201
      4 C           1.0909   -0.1570   -1.6012 C.ar    1  UNL1       -0.0196
      5 C           1.6892   -0.6506   -2.7444 C.ar    1  UNL1       -0.0536
      6 C           1.7875   -2.0157   -2.9405 C.ar    1  UNL1       -0.0293
      7 C           2.4403   -2.5514   -4.1887 C.3     1  UNL1        0.0490
      8 N           3.8750   -2.7290   -3.9517 N.am    1  UNL1       -0.2182
      9 C           4.7958   -1.7837   -4.1716 C.2     1  UNL1        0.3110
     10 O           4.5371   -0.6737   -4.5937 O.2     1  UNL1       -0.2521
     11 N           6.0401   -2.1991   -3.8735 N.am    1  UNL1       -0.2632
     12 C           5.9183   -3.5886   -3.3996 C.3     1  UNL1        0.2776
     13 N           6.3860   -3.7042   -2.0161 N.am    1  UNL1       -0.2796
     14 C           6.1720   -4.8415   -1.3253 C.2     1  UNL1        0.2182
     15 O           5.6676   -5.7984   -1.8738 O.2     1  UNL1       -0.2754
     16 C           6.5596   -4.9242    0.1286 C.3     1  UNL1        0.0356
     17 C           5.7962   -3.8612    0.9212 C.3     1  UNL1       -0.0419
     18 C           6.1897   -3.9451    2.3973 C.3     1  UNL1       -0.0524
     19 C           5.8422   -5.3329    2.9396 C.3     1  UNL1       -0.0530
     20 C           6.6056   -6.3960    2.1471 C.3     1  UNL1       -0.0524
     21 C           6.2121   -6.3120    0.6709 C.3     1  UNL1       -0.0419
     22 C           6.6981   -4.5384   -4.3110 C.3     1  UNL1        0.4365
     23 F           8.0660   -4.2629   -4.2106 F       1  UNL1       -0.1662
     24 F           6.4588   -5.8604   -3.9207 F       1  UNL1       -0.1662
     25 F           6.2825   -4.3605   -5.6349 F       1  UNL1       -0.1662
     26 C           4.4296   -3.8630   -3.4797 C.2     1  UNL1        0.2745
     27 O           3.8576   -4.8907   -3.1857 O.2     1  UNL1       -0.2706
     28 C           1.2882   -2.8903   -1.9930 C.ar    1  UNL1       -0.0536
     29 C           0.6937   -2.4018   -0.8457 C.ar    1  UNL1       -0.0196
     30 H           0.9336    1.2892    0.6052 H       1  UNL1        0.0660
     31 H          -0.6441    1.2865   -0.2187 H       1  UNL1        0.0660
     32 H          -0.5644    1.1219    1.5518 H       1  UNL1        0.0660
     33 H           1.0138    0.9094   -1.4489 H       1  UNL1        0.0654
     34 H           2.0803    0.0305   -3.4858 H       1  UNL1        0.0622
     35 H           1.9935   -3.5108   -4.4493 H       1  UNL1        0.0519
     36 H           2.2917   -1.8471   -5.0072 H       1  UNL1        0.0519
     37 H           6.8582   -1.6842   -3.9551 H       1  UNL1        0.1530
     38 H           6.8497   -2.9623   -1.5973 H       1  UNL1        0.1515
     39 H           7.6313   -4.7526    0.2293 H       1  UNL1        0.0394
     40 H           6.0438   -2.8724    0.5348 H       1  UNL1        0.0272
     41 H           4.7245   -4.0327    0.8205 H       1  UNL1        0.0272
     42 H           7.2614   -3.7735    2.4980 H       1  UNL1        0.0265
     43 H           5.6459   -3.1878    2.9620 H       1  UNL1        0.0265
     44 H           6.1226   -5.3927    3.9913 H       1  UNL1        0.0265
     45 H           4.7706   -5.5045    2.8390 H       1  UNL1        0.0265
     46 H           7.6773   -6.2244    2.2478 H       1  UNL1        0.0265
     47 H           6.3581   -7.3847    2.5334 H       1  UNL1        0.0265
     48 H           5.1404   -6.4836    0.5703 H       1  UNL1        0.0272
     49 H           6.7559   -7.0694    0.1063 H       1  UNL1        0.0272
     50 H           1.3665   -3.9562   -2.1483 H       1  UNL1        0.0622
     51 H           0.3038   -3.0853   -0.1060 H       1  UNL1        0.0654
@<TRIPOS>BOND
     1     1     2    1
     2     1    30    1
     3     1    31    1
     4     1    32    1
     5     2     3    1
     6     3    29   ar
     7     3     4   ar
     8     4     5   ar
     9     4    33    1
    10     5     6   ar
    11     5    34    1
    12     6     7    1
    13     6    28   ar
    14     7     8    1
    15     7    35    1
    16     7    36    1
    17     8    26   am
    18     8     9   am
    19     9    10    2
    20     9    11   am
    21    11    12    1
    22    11    37    1
    23    12    13    1
    24    12    22    1
    25    12    26    1
    26    13    14   am
    27    13    38    1
    28    14    15    2
    29    14    16    1
    30    16    21    1
    31    16    17    1
    32    16    39    1
    33    17    18    1
    34    17    40    1
    35    17    41    1
    36    18    19    1
    37    18    42    1
    38    18    43    1
    39    19    20    1
    40    19    44    1
    41    19    45    1
    42    20    21    1
    43    20    46    1
    44    20    47    1
    45    21    48    1
    46    21    49    1
    47    22    23    1
    48    22    24    1
    49    22    25    1
    50    26    27    2
    51    28    29   ar
    52    28    50    1
    53    29    51    1
