@<TRIPOS>MOLECULE
ZINC000016576833
 56 58 0 0 0
SMALL
GASTEIGER

@<TRIPOS>ATOM
      1 C          -0.0187    1.5258    0.0104 C.3     1  UNL1       -0.0425
      2 C           0.0021   -0.0041    0.0020 C.3     1  UNL1        0.0456
      3 H           0.5123   -0.3556   -0.8948 H       1  UNL1        0.0545
      4 N          -1.3723   -0.5112    0.0124 N.am    1  UNL1       -0.3077
      5 C          -2.0508   -0.6427   -1.1446 C.2     1  UNL1        0.2293
      6 O          -1.5236   -0.3413   -2.1944 O.2     1  UNL1       -0.2743
      7 C          -3.4646   -1.1643   -1.1339 C.3     1  UNL1        0.0968
      8 N          -3.9776   -1.2130   -2.5053 N.3     1  UNL1       -0.1675
      9 C          -3.7030   -2.3787   -3.3491 C.3     1  UNL1        0.0250
     10 C          -4.7472   -3.4632   -3.0762 C.3     1  UNL1       -0.0132
     11 C          -4.4648   -4.6623   -3.9441 C.ar    1  UNL1       -0.0461
     12 C          -5.0294   -4.7530   -5.2027 C.ar    1  UNL1       -0.0585
     13 C          -4.7703   -5.8529   -5.9989 C.ar    1  UNL1       -0.0615
     14 C          -3.9463   -6.8620   -5.5367 C.ar    1  UNL1       -0.0617
     15 C          -3.3810   -6.7709   -4.2785 C.ar    1  UNL1       -0.0615
     16 C          -3.6366   -5.6690   -3.4840 C.ar    1  UNL1       -0.0585
     17 S          -4.8677    0.0496   -3.1018 S.O2    1  UNL1        0.0613
     18 O          -5.7655   -0.5063   -4.0527 O.2     1  UNL1       -0.1528
     19 O          -5.2965    0.8048   -1.9770 O.2     1  UNL1       -0.1528
     20 C          -3.7645    1.0848   -4.0049 C.ar    1  UNL1        0.1055
     21 C          -3.1028    2.1154   -3.3638 C.ar    1  UNL1       -0.0353
     22 C          -2.2372    2.9276   -4.0723 C.ar    1  UNL1       -0.0599
     23 C          -2.0331    2.7090   -5.4219 C.ar    1  UNL1       -0.0616
     24 C          -2.6941    1.6779   -6.0629 C.ar    1  UNL1       -0.0599
     25 C          -3.5563    0.8630   -5.3534 C.ar    1  UNL1       -0.0353
     26 C           0.7309   -0.5033    1.2229 C.ar    1  UNL1       -0.0275
     27 C           0.0808   -0.5585    2.4416 C.ar    1  UNL1       -0.0568
     28 C           0.7494   -1.0164    3.5615 C.ar    1  UNL1       -0.0614
     29 C           2.0680   -1.4196    3.4626 C.ar    1  UNL1       -0.0617
     30 C           2.7178   -1.3652    2.2438 C.ar    1  UNL1       -0.0614
     31 C           2.0479   -0.9113    1.1230 C.ar    1  UNL1       -0.0568
     32 H           1.0039    1.9031    0.0027 H       1  UNL1        0.0251
     33 H          -0.5459    1.8868   -0.8726 H       1  UNL1        0.0251
     34 H          -0.5289    1.8773    0.9072 H       1  UNL1        0.0251
     35 H          -1.7940   -0.7522    0.8520 H       1  UNL1        0.1493
     36 H          -3.4790   -2.1662   -0.7048 H       1  UNL1        0.0539
     37 H          -4.0912   -0.5035   -0.5349 H       1  UNL1        0.0539
     38 H          -3.7483   -2.0866   -4.3983 H       1  UNL1        0.0447
     39 H          -2.7096   -2.7656   -3.1222 H       1  UNL1        0.0447
     40 H          -4.7019   -3.7553   -2.0270 H       1  UNL1        0.0326
     41 H          -5.7407   -3.0764   -3.3031 H       1  UNL1        0.0326
     42 H          -5.6731   -3.9646   -5.5638 H       1  UNL1        0.0620
     43 H          -5.2119   -5.9240   -6.9819 H       1  UNL1        0.0618
     44 H          -3.7444   -7.7217   -6.1585 H       1  UNL1        0.0618
     45 H          -2.7374   -7.5595   -3.9173 H       1  UNL1        0.0618
     46 H          -3.1949   -5.5978   -2.5010 H       1  UNL1        0.0620
     47 H          -3.2623    2.2862   -2.3094 H       1  UNL1        0.0637
     48 H          -1.7208    3.7331   -3.5716 H       1  UNL1        0.0618
     49 H          -1.3574    3.3439   -5.9757 H       1  UNL1        0.0618
     50 H          -2.5348    1.5073   -7.1174 H       1  UNL1        0.0618
     51 H          -4.0728    0.0574   -5.8541 H       1  UNL1        0.0637
     52 H          -0.9493   -0.2435    2.5188 H       1  UNL1        0.0621
     53 H           0.2417   -1.0589    4.5138 H       1  UNL1        0.0618
     54 H           2.5905   -1.7767    4.3377 H       1  UNL1        0.0618
     55 H           3.7481   -1.6798    2.1666 H       1  UNL1        0.0618
     56 H           2.5556   -0.8688    0.1707 H       1  UNL1        0.0621
@<TRIPOS>BOND
     1     1     2    1
     2     1    32    1
     3     1    33    1
     4     1    34    1
     5     2     3    1
     6     2     4    1
     7     2    26    1
     8     4     5   am
     9     4    35    1
    10     5     6    2
    11     5     7    1
    12     7     8    1
    13     7    36    1
    14     7    37    1
    15     8     9    1
    16    17     8    1
    17     9    10    1
    18     9    38    1
    19     9    39    1
    20    10    11    1
    21    10    40    1
    22    10    41    1
    23    11    16   ar
    24    11    12   ar
    25    12    13   ar
    26    12    42    1
    27    13    14   ar
    28    13    43    1
    29    14    15   ar
    30    14    44    1
    31    15    16   ar
    32    15    45    1
    33    16    46    1
    34    17    18    2
    35    17    19    2
    36    17    20    1
    37    20    25   ar
    38    20    21   ar
    39    21    22   ar
    40    21    47    1
    41    22    23   ar
    42    22    48    1
    43    23    24   ar
    44    23    49    1
    45    24    25   ar
    46    24    50    1
    47    25    51    1
    48    26    31   ar
    49    26    27   ar
    50    27    28   ar
    51    27    52    1
    52    28    29   ar
    53    28    53    1
    54    29    30   ar
    55    29    54    1
    56    30    31   ar
    57    30    55    1
    58    31    56    1
