@<TRIPOS>MOLECULE
ZINC000008988248
 52 54 0 0 0
SMALL
GASTEIGER

@<TRIPOS>ATOM
      1 C          -0.0173    1.4248    0.0099 C.3     1  UNL1        0.0790
      2 O           0.0021   -0.0041    0.0020 O.3     1  UNL1       -0.4915
      3 C           0.6262   -0.6188    1.0422 C.ar    1  UNL1        0.1615
      4 C           1.2019    0.1365    2.0506 C.ar    1  UNL1       -0.0163
      5 C           1.8358   -0.4901    3.1079 C.ar    1  UNL1       -0.0581
      6 C           1.8971   -1.8698    3.1612 C.ar    1  UNL1       -0.0581
      7 C           1.3249   -2.6298    2.1575 C.ar    1  UNL1       -0.0163
      8 C           0.6830   -2.0084    1.0988 C.ar    1  UNL1        0.1626
      9 O           0.1197   -2.7543    0.1110 O.3     1  UNL1       -0.4791
     10 C           0.2274   -4.1743    0.2286 C.3     1  UNL1        0.1655
     11 C          -0.4498   -4.8287   -0.9479 C.2     1  UNL1        0.2533
     12 O          -0.9731   -4.1461   -1.8030 O.2     1  UNL1       -0.2719
     13 N          -0.4740   -6.1724   -1.0499 N.am    1  UNL1       -0.2961
     14 C           0.1507   -7.0121   -0.0182 C.3     1  UNL1        0.0292
     15 C          -0.8973   -7.9989    0.5112 C.3     1  UNL1        0.0363
     16 N          -1.5491   -8.6506   -0.6335 N.3     1  UNL1       -0.1736
     17 S          -1.5797  -10.3016   -0.7582 S.O2    1  UNL1        0.0609
     18 O          -1.7474  -10.5967   -2.1381 O.2     1  UNL1       -0.1528
     19 O          -0.4868  -10.7825    0.0121 O.2     1  UNL1       -0.1528
     20 C          -3.0423  -10.8588    0.0511 C.ar    1  UNL1        0.1055
     21 C          -3.0136  -11.1610    1.3997 C.ar    1  UNL1       -0.0348
     22 C          -4.1611  -11.5981    2.0346 C.ar    1  UNL1       -0.0483
     23 C          -5.3373  -11.7327    1.3210 C.ar    1  UNL1        0.0549
     24 C          -6.5881  -12.2097    2.0131 C.3     1  UNL1        0.4174
     25 F          -7.2921  -11.1096    2.5145 F       1  UNL1       -0.1659
     26 F          -7.3917  -12.9008    1.0999 F       1  UNL1       -0.1659
     27 F          -6.2418  -13.0616    3.0674 F       1  UNL1       -0.1659
     28 C          -5.3664  -11.4292   -0.0273 C.ar    1  UNL1       -0.0483
     29 C          -4.2198  -10.9884   -0.6614 C.ar    1  UNL1       -0.0348
     30 C          -2.1738   -7.8108   -1.6652 C.3     1  UNL1        0.0363
     31 C          -1.1307   -6.8241   -2.1917 C.3     1  UNL1        0.0292
     32 H           1.0053    1.8021    0.0021 H       1  UNL1        0.0660
     33 H          -0.5445    1.7859   -0.8732 H       1  UNL1        0.0660
     34 H          -0.5275    1.7763    0.9067 H       1  UNL1        0.0660
     35 H           1.1560    1.2148    2.0110 H       1  UNL1        0.0655
     36 H           2.2843    0.0999    3.8935 H       1  UNL1        0.0619
     37 H           2.3934   -2.3556    3.9884 H       1  UNL1        0.0619
     38 H           1.3748   -3.7077    2.2012 H       1  UNL1        0.0655
     39 H           1.2795   -4.4587    0.2466 H       1  UNL1        0.0795
     40 H          -0.2528   -4.4999    1.1514 H       1  UNL1        0.0795
     41 H           0.9859   -7.5627   -0.4510 H       1  UNL1        0.0478
     42 H           0.5071   -6.3841    0.7983 H       1  UNL1        0.0478
     43 H          -0.4107   -8.7512    1.1320 H       1  UNL1        0.0459
     44 H          -1.6416   -7.4617    1.0989 H       1  UNL1        0.0459
     45 H          -2.0946  -11.0559    1.9572 H       1  UNL1        0.0637
     46 H          -4.1385  -11.8349    3.0881 H       1  UNL1        0.0624
     47 H          -6.2855  -11.5339   -0.5847 H       1  UNL1        0.0624
     48 H          -4.2425  -10.7512   -1.7148 H       1  UNL1        0.0637
     49 H          -2.5302   -8.4388   -2.4817 H       1  UNL1        0.0459
     50 H          -3.0090   -7.2602   -1.2324 H       1  UNL1        0.0459
     51 H          -1.6186   -6.0726   -2.8124 H       1  UNL1        0.0478
     52 H          -0.3848   -7.3593   -2.7793 H       1  UNL1        0.0478
@<TRIPOS>BOND
     1     1     2    1
     2     1    32    1
     3     1    33    1
     4     1    34    1
     5     2     3    1
     6     3     8   ar
     7     3     4   ar
     8     4     5   ar
     9     4    35    1
    10     5     6   ar
    11     5    36    1
    12     6     7   ar
    13     6    37    1
    14     7     8   ar
    15     7    38    1
    16     8     9    1
    17     9    10    1
    18    10    11    1
    19    10    39    1
    20    10    40    1
    21    11    12    2
    22    11    13   am
    23    13    31    1
    24    13    14    1
    25    14    15    1
    26    14    41    1
    27    14    42    1
    28    15    16    1
    29    15    43    1
    30    15    44    1
    31    17    16    1
    32    16    30    1
    33    17    18    2
    34    17    19    2
    35    17    20    1
    36    20    29   ar
    37    20    21   ar
    38    21    22   ar
    39    21    45    1
    40    22    23   ar
    41    22    46    1
    42    23    24    1
    43    23    28   ar
    44    24    25    1
    45    24    26    1
    46    24    27    1
    47    28    29   ar
    48    28    47    1
    49    29    48    1
    50    30    31    1
    51    30    49    1
    52    30    50    1
    53    31    51    1
    54    31    52    1
