@<TRIPOS>MOLECULE
ZINC000045944822
 58 59 0 0 0
SMALL
GASTEIGER

@<TRIPOS>ATOM
      1 C          -0.0187    1.5258    0.0104 C.3     1  UNL1       -0.0613
      2 C           0.0021   -0.0041    0.0020 C.3     1  UNL1       -0.0305
      3 C          -1.4117   -0.5257    0.0127 C.ar    1  UNL1       -0.0475
      4 C          -2.0507   -0.7660    1.2147 C.ar    1  UNL1       -0.0567
      5 C          -3.3476   -1.2445    1.2246 C.ar    1  UNL1       -0.0351
      6 C          -4.0056   -1.4822    0.0324 C.ar    1  UNL1        0.1055
      7 S          -5.6584   -2.0926    0.0449 S.O2    1  UNL1        0.0609
      8 O          -5.8564   -2.7406   -1.2042 O.2     1  UNL1       -0.1528
      9 O          -5.8361   -2.7442    1.2951 O.2     1  UNL1       -0.1528
     10 N          -6.6662   -0.7786    0.0549 N.3     1  UNL1       -0.1761
     11 C          -7.1223   -0.1956   -1.2093 C.3     1  UNL1        0.0226
     12 C          -8.4870   -0.7809   -1.5779 C.3     1  UNL1       -0.0150
     13 C          -8.9633   -0.1720   -2.8983 C.3     1  UNL1        0.0485
     14 O         -10.2379   -0.7186   -3.2425 O.3     1  UNL1       -0.3829
     15 C         -10.7757   -0.2133   -4.4663 C.3     1  UNL1        0.0364
     16 C          -7.1017   -0.1992    1.3281 C.3     1  UNL1        0.0288
     17 C          -6.1799    0.9635    1.7011 C.3     1  UNL1        0.0385
     18 C          -6.6279    1.5595    3.0107 C.2     1  UNL1        0.2169
     19 O          -7.5897    1.0996    3.5888 O.2     1  UNL1       -0.2756
     20 N          -5.9596    2.6037    3.5395 N.am    1  UNL1       -0.2990
     21 C          -4.7944    3.1805    2.8520 C.3     1  UNL1        0.0272
     22 C          -3.6333    3.2641    3.8486 C.3     1  UNL1        0.0118
     23 N          -4.0717    3.9932    5.0462 N.3     1  UNL1       -0.3130
     24 C          -5.1529    3.2794    5.7386 C.3     1  UNL1        0.0118
     25 C          -6.3800    3.2004    4.8165 C.3     1  UNL1        0.0272
     26 C          -3.3671   -1.2406   -1.1697 C.ar    1  UNL1       -0.0351
     27 C          -2.0716   -0.7585   -1.1795 C.ar    1  UNL1       -0.0567
     28 H           1.0039    1.9031    0.0027 H       1  UNL1        0.0233
     29 H          -0.5459    1.8868   -0.8726 H       1  UNL1        0.0233
     30 H          -0.5289    1.8773    0.9072 H       1  UNL1        0.0233
     31 H           0.5123   -0.3556   -0.8948 H       1  UNL1        0.0311
     32 H           0.5293   -0.3651    0.8851 H       1  UNL1        0.0311
     33 H          -1.5366   -0.5803    2.1462 H       1  UNL1        0.0621
     34 H          -3.8465   -1.4329    2.1637 H       1  UNL1        0.0637
     35 H          -7.2079    0.8856   -1.1008 H       1  UNL1        0.0445
     36 H          -6.4037   -0.4260   -1.9958 H       1  UNL1        0.0445
     37 H          -8.4014   -1.8621   -1.6864 H       1  UNL1        0.0300
     38 H          -9.2056   -0.5504   -0.7914 H       1  UNL1        0.0300
     39 H          -9.0490    0.9092   -2.7898 H       1  UNL1        0.0560
     40 H          -8.2447   -0.4024   -3.6848 H       1  UNL1        0.0560
     41 H         -11.7437   -0.6770   -4.6566 H       1  UNL1        0.0523
     42 H         -10.8990    0.8670   -4.3903 H       1  UNL1        0.0523
     43 H         -10.0947   -0.4446   -5.2853 H       1  UNL1        0.0523
     44 H          -8.1245    0.1648    1.2306 H       1  UNL1        0.0448
     45 H          -7.0597   -0.9605    2.1070 H       1  UNL1        0.0448
     46 H          -5.1571    0.5995    1.7985 H       1  UNL1        0.0371
     47 H          -6.2219    1.7248    0.9221 H       1  UNL1        0.0371
     48 H          -4.5120    2.5441    2.0134 H       1  UNL1        0.0477
     49 H          -5.0396    4.1793    2.4910 H       1  UNL1        0.0477
     50 H          -3.3216    2.2580    4.1291 H       1  UNL1        0.0439
     51 H          -2.7964    3.7897    3.3888 H       1  UNL1        0.0439
     52 H          -3.2963    4.1662    5.6683 H       1  UNL1        0.1220
     53 H          -4.8200    2.2731    5.9928 H       1  UNL1        0.0439
     54 H          -5.4181    3.8161    6.6495 H       1  UNL1        0.0439
     55 H          -6.7756    4.2018    4.6468 H       1  UNL1        0.0477
     56 H          -7.1445    2.5747    5.2771 H       1  UNL1        0.0477
     57 H          -3.8814   -1.4260   -2.1011 H       1  UNL1        0.0637
     58 H          -1.5728   -0.5697   -2.1186 H       1  UNL1        0.0621
@<TRIPOS>BOND
     1     1     2    1
     2     1    28    1
     3     1    29    1
     4     1    30    1
     5     2     3    1
     6     2    31    1
     7     2    32    1
     8     3    27   ar
     9     3     4   ar
    10     4     5   ar
    11     4    33    1
    12     5     6   ar
    13     5    34    1
    14     6     7    1
    15     6    26   ar
    16     7     8    2
    17     7     9    2
    18     7    10    1
    19    10    11    1
    20    10    16    1
    21    11    12    1
    22    11    35    1
    23    11    36    1
    24    12    13    1
    25    12    37    1
    26    12    38    1
    27    13    14    1
    28    13    39    1
    29    13    40    1
    30    14    15    1
    31    15    41    1
    32    15    42    1
    33    15    43    1
    34    16    17    1
    35    16    44    1
    36    16    45    1
    37    17    18    1
    38    17    46    1
    39    17    47    1
    40    18    19    2
    41    18    20   am
    42    20    25    1
    43    20    21    1
    44    21    22    1
    45    21    48    1
    46    21    49    1
    47    22    23    1
    48    22    50    1
    49    22    51    1
    50    23    24    1
    51    23    52    1
    52    24    25    1
    53    24    53    1
    54    24    54    1
    55    25    55    1
    56    25    56    1
    57    26    27   ar
    58    26    57    1
    59    27    58    1
