@<TRIPOS>MOLECULE
ZINC000089904837
 51 53 0 0 0
SMALL
GASTEIGER

@<TRIPOS>ATOM
      1 C           0.4171    3.5964   -4.4629 C.3     1  UNL1        0.0788
      2 O           0.2633    2.5145   -3.5421 O.3     1  UNL1       -0.4951
      3 C           0.8374    1.3301   -3.8803 C.ar    1  UNL1        0.1201
      4 C           1.5394    1.2132   -5.0712 C.ar    1  UNL1       -0.0196
      5 C           2.1225    0.0083   -5.4125 C.ar    1  UNL1       -0.0524
      6 C           2.0066   -1.0808   -4.5686 C.ar    1  UNL1       -0.0146
      7 C           2.6433   -2.3942   -4.9436 C.3     1  UNL1        0.1052
      8 C           4.0706   -2.4442   -4.3949 C.3     1  UNL1       -0.0303
      9 O           2.6755   -2.5187   -6.3668 O.3     1  UNL1       -0.3826
     10 C           1.8279   -3.5444   -4.3494 C.3     1  UNL1        0.0645
     11 H           1.8652   -3.5013   -3.2609 H       1  UNL1        0.0512
     12 C           0.3638   -3.4521   -4.8284 C.3     1  UNL1       -0.0315
     13 C          -0.0212   -4.9375   -5.0577 C.3     1  UNL1       -0.0370
     14 C           1.3106   -5.5258   -5.5869 C.3     1  UNL1        0.0210
     15 N           2.3634   -4.8311   -4.8176 N.3     1  UNL1       -0.1705
     16 S           3.8906   -5.4057   -4.5352 S.O2    1  UNL1        0.0612
     17 O           4.5204   -5.5120   -5.8046 O.2     1  UNL1       -0.1528
     18 O           4.4196   -4.6314   -3.4675 O.2     1  UNL1       -0.1528
     19 C           3.7245   -7.0495   -3.9229 C.ar    1  UNL1        0.1055
     20 C           3.4798   -7.2653   -2.5797 C.ar    1  UNL1       -0.0348
     21 C           3.3495   -8.5550   -2.0993 C.ar    1  UNL1       -0.0483
     22 C           3.4634   -9.6288   -2.9624 C.ar    1  UNL1        0.0549
     23 C           3.3218  -11.0347   -2.4386 C.3     1  UNL1        0.4174
     24 F           1.9797  -11.4241   -2.5048 F       1  UNL1       -0.1659
     25 F           4.0978  -11.9020   -3.2151 F       1  UNL1       -0.1659
     26 F           3.7565  -11.0833   -1.1098 F       1  UNL1       -0.1659
     27 C           3.7068   -9.4129   -4.3059 C.ar    1  UNL1       -0.0483
     28 C           3.8333   -8.1231   -4.7869 C.ar    1  UNL1       -0.0348
     29 C           1.3079   -0.9668   -3.3809 C.ar    1  UNL1       -0.0524
     30 C           0.7274    0.2374   -3.0326 C.ar    1  UNL1       -0.0196
     31 H           1.4772    3.8123   -4.5960 H       1  UNL1        0.0660
     32 H          -0.0211    3.3220   -5.4224 H       1  UNL1        0.0660
     33 H          -0.0874    4.4803   -4.0726 H       1  UNL1        0.0660
     34 H           1.6297    2.0634   -5.7310 H       1  UNL1        0.0654
     35 H           2.6691   -0.0832   -6.3395 H       1  UNL1        0.0622
     36 H           4.0406   -2.6212   -3.3198 H       1  UNL1        0.0261
     37 H           4.6187   -3.2514   -4.8809 H       1  UNL1        0.0261
     38 H           4.5695   -1.4955   -4.5931 H       1  UNL1        0.0261
     39 H           1.8090   -2.4375   -6.7885 H       1  UNL1        0.2107
     40 H          -0.2661   -3.0047   -4.0594 H       1  UNL1        0.0282
     41 H           0.2973   -2.8884   -5.7589 H       1  UNL1        0.0282
     42 H          -0.3143   -5.4140   -4.1222 H       1  UNL1        0.0279
     43 H          -0.8110   -5.0258   -5.8036 H       1  UNL1        0.0279
     44 H           1.3520   -6.5989   -5.4004 H       1  UNL1        0.0444
     45 H           1.4193   -5.3205   -6.6519 H       1  UNL1        0.0444
     46 H           3.3908   -6.4264   -1.9054 H       1  UNL1        0.0637
     47 H           3.1590   -8.7236   -1.0497 H       1  UNL1        0.0624
     48 H           3.7954  -10.2518   -4.9802 H       1  UNL1        0.0624
     49 H           4.0234   -7.9545   -5.8366 H       1  UNL1        0.0637
     50 H           1.2190   -1.8188   -2.7233 H       1  UNL1        0.0622
     51 H           0.1817    0.3260   -2.1048 H       1  UNL1        0.0654
@<TRIPOS>BOND
     1     1     2    1
     2     1    31    1
     3     1    32    1
     4     1    33    1
     5     2     3    1
     6     3    30   ar
     7     3     4   ar
     8     4     5   ar
     9     4    34    1
    10     5     6   ar
    11     5    35    1
    12     6    29   ar
    13     7     6    1
    14     7     8    1
    15     7     9    1
    16     7    10    1
    17     8    36    1
    18     8    37    1
    19     8    38    1
    20     9    39    1
    21    10    11    1
    22    10    15    1
    23    10    12    1
    24    12    13    1
    25    12    40    1
    26    12    41    1
    27    13    14    1
    28    13    42    1
    29    13    43    1
    30    14    15    1
    31    14    44    1
    32    14    45    1
    33    16    15    1
    34    16    17    2
    35    16    18    2
    36    16    19    1
    37    19    28   ar
    38    19    20   ar
    39    20    21   ar
    40    20    46    1
    41    21    22   ar
    42    21    47    1
    43    22    23    1
    44    22    27   ar
    45    23    24    1
    46    23    25    1
    47    23    26    1
    48    27    28   ar
    49    27    48    1
    50    28    49    1
    51    29    30   ar
    52    29    50    1
    53    30    51    1
