@<TRIPOS>MOLECULE
ZINC000038556507
 60 62 0 0 0
SMALL
GASTEIGER

@<TRIPOS>ATOM
      1 C          -0.0173    1.4248    0.0099 C.3     1  UNL1        0.0788
      2 O           0.0021   -0.0041    0.0020 O.3     1  UNL1       -0.4948
      3 C           0.6058   -0.6071   -1.0557 C.ar    1  UNL1        0.1231
      4 C           1.1729    0.1605   -2.0622 C.ar    1  UNL1       -0.0178
      5 C           1.7865   -0.4550   -3.1363 C.ar    1  UNL1       -0.0319
      6 C           1.8352   -1.8346   -3.2086 C.ar    1  UNL1        0.1060
      7 S           2.6179   -2.6165   -4.5799 S.O2    1  UNL1        0.0613
      8 O           2.0536   -3.9171   -4.6761 O.2     1  UNL1       -0.1528
      9 O           2.5918   -1.6772   -5.6459 O.2     1  UNL1       -0.1528
     10 N           4.2113   -2.8264   -4.1806 N.3     1  UNL1       -0.1675
     11 C           4.6429   -4.0563   -3.5117 C.3     1  UNL1        0.0250
     12 C           5.1513   -5.0530   -4.5552 C.3     1  UNL1       -0.0132
     13 C           5.5953   -6.3181   -3.8671 C.ar    1  UNL1       -0.0461
     14 C           6.9022   -6.4482   -3.4360 C.ar    1  UNL1       -0.0585
     15 C           7.3095   -7.6087   -2.8048 C.ar    1  UNL1       -0.0615
     16 C           6.4097   -8.6388   -2.6043 C.ar    1  UNL1       -0.0617
     17 C           5.1025   -8.5082   -3.0347 C.ar    1  UNL1       -0.0615
     18 C           4.6942   -7.3461   -3.6620 C.ar    1  UNL1       -0.0585
     19 C           5.1893   -1.7823   -4.4963 C.3     1  UNL1        0.0968
     20 C           5.3782   -0.8915   -3.2955 C.2     1  UNL1        0.2290
     21 O           4.7571   -1.1075   -2.2765 O.2     1  UNL1       -0.2743
     22 N           6.2374    0.1453   -3.3541 N.am    1  UNL1       -0.3114
     23 C           6.4211    1.0113   -2.1869 C.3     1  UNL1        0.0232
     24 C           7.5189    0.4351   -1.2690 C.3     1  UNL1       -0.0345
     25 C           8.8032    1.1901   -1.6928 C.3     1  UNL1       -0.0513
     26 C           8.2820    2.6219   -1.9710 C.3     1  UNL1       -0.0513
     27 C           6.9063    2.4016   -2.6332 C.3     1  UNL1       -0.0345
     28 C           1.2709   -2.6022   -2.2062 C.ar    1  UNL1       -0.0290
     29 C           0.6609   -1.9917   -1.1277 C.ar    1  UNL1       -0.0070
     30 C           0.0467   -2.8287   -0.0354 C.3     1  UNL1       -0.0362
     31 H           1.0053    1.8021    0.0021 H       1  UNL1        0.0660
     32 H          -0.5445    1.7859   -0.8732 H       1  UNL1        0.0660
     33 H          -0.5275    1.7763    0.9067 H       1  UNL1        0.0660
     34 H           1.1346    1.2384   -2.0066 H       1  UNL1        0.0655
     35 H           2.2283    0.1423   -3.9203 H       1  UNL1        0.0638
     36 H           5.4436   -3.8258   -2.8090 H       1  UNL1        0.0447
     37 H           3.8011   -4.4917   -2.9733 H       1  UNL1        0.0447
     38 H           4.3506   -5.2834   -5.2580 H       1  UNL1        0.0326
     39 H           5.9931   -4.6176   -5.0937 H       1  UNL1        0.0326
     40 H           7.6052   -5.6434   -3.5926 H       1  UNL1        0.0620
     41 H           8.3307   -7.7106   -2.4686 H       1  UNL1        0.0618
     42 H           6.7281   -9.5457   -2.1118 H       1  UNL1        0.0618
     43 H           4.3996   -9.3132   -2.8784 H       1  UNL1        0.0618
     44 H           3.6729   -7.2441   -3.9982 H       1  UNL1        0.0620
     45 H           6.1410   -2.2437   -4.7598 H       1  UNL1        0.0539
     46 H           4.8285   -1.1885   -5.3361 H       1  UNL1        0.0539
     47 H           6.7341    0.3180   -4.1692 H       1  UNL1        0.1490
     48 H           5.4837    1.1014   -1.6380 H       1  UNL1        0.0498
     49 H           7.2859    0.6359   -0.2232 H       1  UNL1        0.0283
     50 H           7.6331   -0.6358   -1.4366 H       1  UNL1        0.0283
     51 H           9.5332    1.1952   -0.8833 H       1  UNL1        0.0266
     52 H           9.2289    0.7518   -2.5955 H       1  UNL1        0.0266
     53 H           8.1723    3.1758   -1.0386 H       1  UNL1        0.0266
     54 H           8.9531    3.1468   -2.6509 H       1  UNL1        0.0266
     55 H           7.0051    2.4320   -3.7183 H       1  UNL1        0.0283
     56 H           6.2048    3.1666   -2.3002 H       1  UNL1        0.0283
     57 H           1.3105   -3.6799   -2.2647 H       1  UNL1        0.0641
     58 H           0.7936   -3.0283    0.7329 H       1  UNL1        0.0279
     59 H          -0.7932   -2.2915    0.4052 H       1  UNL1        0.0279
     60 H          -0.3047   -3.7717   -0.4543 H       1  UNL1        0.0279
@<TRIPOS>BOND
     1     1     2    1
     2     1    31    1
     3     1    32    1
     4     1    33    1
     5     2     3    1
     6     3    29   ar
     7     3     4   ar
     8     4     5   ar
     9     4    34    1
    10     5     6   ar
    11     5    35    1
    12     6     7    1
    13     6    28   ar
    14     7     8    2
    15     7     9    2
    16     7    10    1
    17    10    11    1
    18    10    19    1
    19    11    12    1
    20    11    36    1
    21    11    37    1
    22    12    13    1
    23    12    38    1
    24    12    39    1
    25    13    18   ar
    26    13    14   ar
    27    14    15   ar
    28    14    40    1
    29    15    16   ar
    30    15    41    1
    31    16    17   ar
    32    16    42    1
    33    17    18   ar
    34    17    43    1
    35    18    44    1
    36    19    20    1
    37    19    45    1
    38    19    46    1
    39    20    21    2
    40    20    22   am
    41    22    23    1
    42    22    47    1
    43    23    27    1
    44    23    24    1
    45    23    48    1
    46    24    25    1
    47    24    49    1
    48    24    50    1
    49    25    26    1
    50    25    51    1
    51    25    52    1
    52    26    27    1
    53    26    53    1
    54    26    54    1
    55    27    55    1
    56    27    56    1
    57    28    29   ar
    58    28    57    1
    59    29    30    1
    60    30    58    1
    61    30    59    1
    62    30    60    1
