@<TRIPOS>MOLECULE
ZINC000062132516
 32 33 0 0 0
SMALL
GASTEIGER

@<TRIPOS>ATOM
      1 O           0.0021   -0.0041    0.0020 O.co2   1  UNL1       -0.2460
      2 C          -0.0145    1.2150    0.0087 C.2     1  UNL1        0.3603
      3 O           1.0330    1.8389    0.0021 O.co2   1  UNL1       -0.2460
      4 C          -1.3296    1.9507    0.0190 C.3     1  UNL1        0.0762
      5 H          -1.6759    2.1329   -0.9984 H       1  UNL1        0.0428
      6 C          -2.3933    1.1624    0.8279 C.3     1  UNL1       -0.0242
      7 C          -3.3401    2.2992    1.2874 C.3     1  UNL1        0.0213
      8 N          -2.4499    3.4385    1.5752 N.3     1  UNL1       -0.1758
      9 S          -2.7907    4.6951    2.5986 S.O2    1  UNL1        0.0609
     10 O          -1.9804    5.7847    2.1798 O.2     1  UNL1       -0.1528
     11 O          -4.2071    4.7684    2.6861 O.2     1  UNL1       -0.1528
     12 C          -2.2165    4.2345    4.1994 C.ar    1  UNL1        0.1055
     13 C          -3.0559    3.5621    5.0678 C.ar    1  UNL1       -0.0348
     14 C          -2.6054    3.2007    6.3237 C.ar    1  UNL1       -0.0483
     15 C          -1.3153    3.5114    6.7111 C.ar    1  UNL1        0.0549
     16 C          -0.8244    3.1179    8.0805 C.3     1  UNL1        0.4174
     17 F          -0.2500    1.8436    8.0216 F       1  UNL1       -0.1659
     18 F           0.1324    4.0410    8.5159 F       1  UNL1       -0.1659
     19 F          -1.8998    3.1037    8.9752 F       1  UNL1       -0.1659
     20 C          -0.4754    4.1826    5.8422 C.ar    1  UNL1       -0.0483
     21 C          -0.9247    4.5405    4.5849 C.ar    1  UNL1       -0.0348
     22 C          -1.2078    3.2762    0.7999 C.3     1  UNL1        0.0336
     23 H          -2.9185    0.4496    0.1922 H       1  UNL1        0.0286
     24 H          -1.9409    0.6610    1.6835 H       1  UNL1        0.0286
     25 H          -4.0391    2.5556    0.4914 H       1  UNL1        0.0444
     26 H          -3.8800    2.0029    2.1867 H       1  UNL1        0.0444
     27 H          -4.0638    3.3194    4.7652 H       1  UNL1        0.0637
     28 H          -3.2615    2.6760    7.0025 H       1  UNL1        0.0624
     29 H           0.5326    4.4249    6.1448 H       1  UNL1        0.0624
     30 H          -0.2685    5.0649    3.9060 H       1  UNL1        0.0637
     31 H          -0.3530    3.2290    1.4747 H       1  UNL1        0.0452
     32 H          -1.0909    4.1104    0.1081 H       1  UNL1        0.0452
@<TRIPOS>BOND
     1     1     2   ar
     2     2     3   ar
     3     2     4    1
     4     4     5    1
     5     4    22    1
     6     4     6    1
     7     6     7    1
     8     6    23    1
     9     6    24    1
    10     7     8    1
    11     7    25    1
    12     7    26    1
    13     9     8    1
    14     8    22    1
    15     9    10    2
    16     9    11    2
    17     9    12    1
    18    12    21   ar
    19    12    13   ar
    20    13    14   ar
    21    13    27    1
    22    14    15   ar
    23    14    28    1
    24    15    16    1
    25    15    20   ar
    26    16    17    1
    27    16    18    1
    28    16    19    1
    29    20    21   ar
    30    20    29    1
    31    21    30    1
    32    22    31    1
    33    22    32    1
