@<TRIPOS>MOLECULE
ZINC000039985291
 44 45 0 0 0
SMALL
GASTEIGER

@<TRIPOS>ATOM
      1 C          -0.0187    1.5258    0.0104 C.3     1  UNL1       -0.0507
      2 C           0.0021   -0.0041    0.0020 C.3     1  UNL1        0.0182
      3 N           0.6878   -0.4765   -1.2033 N.3     1  UNL1       -0.1681
      4 C           2.1478   -0.5966   -1.2159 C.3     1  UNL1        0.0968
      5 C           2.5471   -1.9310   -0.6407 C.2     1  UNL1        0.2289
      6 O           1.6959   -2.7055   -0.2578 O.2     1  UNL1       -0.2743
      7 N           3.8501   -2.2637   -0.5516 N.am    1  UNL1       -0.3117
      8 C           4.2383   -3.5610    0.0076 C.3     1  UNL1        0.0379
      9 C           5.7631   -3.6864   -0.0056 C.3     1  UNL1        0.0742
     10 H           6.2130   -2.8853    0.5809 H       1  UNL1        0.0611
     11 C           6.1940   -5.0670    0.5502 C.3     1  UNL1       -0.0231
     12 C           7.5810   -5.2377   -0.1273 C.3     1  UNL1       -0.0271
     13 C           7.3664   -4.5477   -1.4916 C.3     1  UNL1        0.0482
     14 O           6.2544   -3.6529   -1.3550 O.3     1  UNL1       -0.3750
     15 S          -0.1875   -0.8749   -2.5515 S.O2    1  UNL1        0.0613
     16 O           0.6166   -1.7761   -3.3001 O.2     1  UNL1       -0.1528
     17 O          -1.4970   -1.1925   -2.1004 O.2     1  UNL1       -0.1528
     18 C          -0.3375    0.5853   -3.5262 C.ar    1  UNL1        0.1055
     19 C          -1.4057    1.4405   -3.3300 C.ar    1  UNL1       -0.0353
     20 C          -1.5234    2.5861   -4.0947 C.ar    1  UNL1       -0.0599
     21 C          -0.5727    2.8767   -5.0552 C.ar    1  UNL1       -0.0616
     22 C           0.4960    2.0219   -5.2507 C.ar    1  UNL1       -0.0599
     23 C           0.6160    0.8786   -4.4831 C.ar    1  UNL1       -0.0353
     24 H           1.0039    1.9031    0.0027 H       1  UNL1        0.0243
     25 H          -0.5459    1.8868   -0.8726 H       1  UNL1        0.0243
     26 H          -0.5289    1.8773    0.9072 H       1  UNL1        0.0243
     27 H           0.5293   -0.3651    0.8851 H       1  UNL1        0.0441
     28 H          -1.0205   -0.3814    0.0098 H       1  UNL1        0.0441
     29 H           2.5098   -0.5199   -2.2412 H       1  UNL1        0.0539
     30 H           2.5833    0.2026   -0.6162 H       1  UNL1        0.0539
     31 H           4.5309   -1.6443   -0.8578 H       1  UNL1        0.1488
     32 H           3.8763   -3.6376    1.0329 H       1  UNL1        0.0487
     33 H           3.8028   -4.3602   -0.5921 H       1  UNL1        0.0487
     34 H           6.2876   -5.0416    1.6359 H       1  UNL1        0.0291
     35 H           5.5040   -5.8499    0.2355 H       1  UNL1        0.0291
     36 H           8.3576   -4.7311    0.4457 H       1  UNL1        0.0288
     37 H           7.8209   -6.2927   -0.2596 H       1  UNL1        0.0288
     38 H           8.2593   -3.9863   -1.7666 H       1  UNL1        0.0560
     39 H           7.1489   -5.2957   -2.2541 H       1  UNL1        0.0560
     40 H          -2.1485    1.2135   -2.5796 H       1  UNL1        0.0637
     41 H          -2.3583    3.2539   -3.9419 H       1  UNL1        0.0618
     42 H          -0.6651    3.7713   -5.6531 H       1  UNL1        0.0618
     43 H           1.2386    2.2488   -6.0014 H       1  UNL1        0.0618
     44 H           1.4509    0.2108   -4.6359 H       1  UNL1        0.0637
@<TRIPOS>BOND
     1     1     2    1
     2     1    24    1
     3     1    25    1
     4     1    26    1
     5     2     3    1
     6     2    27    1
     7     2    28    1
     8     3     4    1
     9    15     3    1
    10     4     5    1
    11     4    29    1
    12     4    30    1
    13     5     6    2
    14     5     7   am
    15     7     8    1
    16     7    31    1
    17     8     9    1
    18     8    32    1
    19     8    33    1
    20     9    10    1
    21     9    14    1
    22     9    11    1
    23    11    12    1
    24    11    34    1
    25    11    35    1
    26    12    13    1
    27    12    36    1
    28    12    37    1
    29    13    14    1
    30    13    38    1
    31    13    39    1
    32    15    16    2
    33    15    17    2
    34    15    18    1
    35    18    23   ar
    36    18    19   ar
    37    19    20   ar
    38    19    40    1
    39    20    21   ar
    40    20    41    1
    41    21    22   ar
    42    21    42    1
    43    22    23   ar
    44    22    43    1
    45    23    44    1
