@<TRIPOS>MOLECULE
ZINC000045974619
 61 62 0 0 0
SMALL
GASTEIGER

@<TRIPOS>ATOM
      1 C          -0.0173    1.4248    0.0099 C.3     1  UNL1        0.0364
      2 O           0.0021   -0.0041    0.0020 O.3     1  UNL1       -0.3829
      3 C          -1.2953   -0.6030    0.0112 C.3     1  UNL1        0.0485
      4 C          -1.1538   -2.1264    0.0017 C.3     1  UNL1       -0.0150
      5 C          -2.5429   -2.7677    0.0115 C.3     1  UNL1        0.0231
      6 N          -2.4075   -4.2264    0.0023 N.3     1  UNL1       -0.1677
      7 C          -2.2176   -4.9523    1.2606 C.3     1  UNL1        0.0970
      8 C          -3.5592   -5.2254    1.8904 C.2     1  UNL1        0.2314
      9 O          -4.5740   -4.8505    1.3422 O.2     1  UNL1       -0.2741
     10 N          -3.6312   -5.8861    3.0629 N.am    1  UNL1       -0.2980
     11 C          -2.4127   -6.3441    3.7475 C.3     1  UNL1        0.0273
     12 C          -2.5737   -7.8299    4.0859 C.3     1  UNL1        0.0118
     13 N          -3.8198   -8.0252    4.8389 N.3     1  UNL1       -0.3130
     14 C          -4.9924   -7.6612    4.0323 C.3     1  UNL1        0.0118
     15 C          -4.9302   -6.1630    3.6947 C.3     1  UNL1        0.0273
     16 S          -2.4690   -5.0547   -1.4303 S.O2    1  UNL1        0.0613
     17 O          -2.8632   -6.3818   -1.1099 O.2     1  UNL1       -0.1528
     18 O          -3.1837   -4.2299   -2.3403 O.2     1  UNL1       -0.1528
     19 C          -0.8204   -5.1597   -2.0433 C.ar    1  UNL1        0.1055
     20 C          -0.3254   -4.1673   -2.8685 C.ar    1  UNL1       -0.0351
     21 C           0.9680   -4.2497   -3.3494 C.ar    1  UNL1       -0.0567
     22 C           1.7665   -5.3242   -3.0048 C.ar    1  UNL1       -0.0470
     23 C           3.1763   -5.4142   -3.5294 C.3     1  UNL1       -0.0253
     24 C           4.1290   -4.7211   -2.5533 C.3     1  UNL1       -0.0427
     25 C           4.1417   -5.4822   -1.2260 C.3     1  UNL1       -0.0624
     26 C           5.5402   -4.7028   -3.1442 C.3     1  UNL1       -0.0624
     27 C           1.2719   -6.3158   -2.1784 C.ar    1  UNL1       -0.0567
     28 C          -0.0202   -6.2315   -1.6944 C.ar    1  UNL1       -0.0351
     29 H           1.0053    1.8021    0.0021 H       1  UNL1        0.0523
     30 H          -0.5445    1.7859   -0.8732 H       1  UNL1        0.0523
     31 H          -0.5275    1.7763    0.9067 H       1  UNL1        0.0523
     32 H          -1.8320   -0.2936    0.9080 H       1  UNL1        0.0560
     33 H          -1.8490   -0.2840   -0.8718 H       1  UNL1        0.0560
     34 H          -0.6171   -2.4359   -0.8952 H       1  UNL1        0.0300
     35 H          -0.6001   -2.4454    0.8847 H       1  UNL1        0.0300
     36 H          -3.0796   -2.4582    0.9083 H       1  UNL1        0.0445
     37 H          -3.0966   -2.4487   -0.8716 H       1  UNL1        0.0445
     38 H          -1.7103   -5.8965    1.0624 H       1  UNL1        0.0539
     39 H          -1.6132   -4.3507    1.9395 H       1  UNL1        0.0539
     40 H          -1.5520   -6.2089    3.0925 H       1  UNL1        0.0477
     41 H          -2.2715   -5.7728    4.6650 H       1  UNL1        0.0477
     42 H          -2.6107   -8.4109    3.1643 H       1  UNL1        0.0439
     43 H          -1.7282   -8.1591    4.6900 H       1  UNL1        0.0439
     44 H          -3.8934   -8.9731    5.1767 H       1  UNL1        0.1220
     45 H          -4.9957   -8.2445    3.1115 H       1  UNL1        0.0439
     46 H          -5.9011   -7.8679    4.5976 H       1  UNL1        0.0439
     47 H          -5.0319   -5.5773    4.6083 H       1  UNL1        0.0477
     48 H          -5.7335   -5.9100    3.0029 H       1  UNL1        0.0477
     49 H          -0.9492   -3.3278   -3.1378 H       1  UNL1        0.0637
     50 H           1.3546   -3.4747   -3.9947 H       1  UNL1        0.0621
     51 H           3.4597   -6.4617   -3.6318 H       1  UNL1        0.0316
     52 H           3.2339   -4.9255   -4.5021 H       1  UNL1        0.0316
     53 H           3.7934   -3.6983   -2.3824 H       1  UNL1        0.0299
     54 H           4.4774   -6.5050   -1.3969 H       1  UNL1        0.0232
     55 H           4.8205   -4.9884   -0.5306 H       1  UNL1        0.0232
     56 H           3.1364   -5.4952   -0.8051 H       1  UNL1        0.0232
     57 H           5.5312   -4.1606   -4.0897 H       1  UNL1        0.0232
     58 H           6.2189   -4.2091   -2.4487 H       1  UNL1        0.0232
     59 H           5.8759   -5.7257   -3.3150 H       1  UNL1        0.0232
     60 H           1.8958   -7.1551   -1.9088 H       1  UNL1        0.0621
     61 H          -0.4066   -7.0063   -1.0488 H       1  UNL1        0.0637
@<TRIPOS>BOND
     1     1     2    1
     2     1    29    1
     3     1    30    1
     4     1    31    1
     5     2     3    1
     6     3     4    1
     7     3    32    1
     8     3    33    1
     9     4     5    1
    10     4    34    1
    11     4    35    1
    12     5     6    1
    13     5    36    1
    14     5    37    1
    15     6     7    1
    16    16     6    1
    17     7     8    1
    18     7    38    1
    19     7    39    1
    20     8     9    2
    21     8    10   am
    22    10    15    1
    23    10    11    1
    24    11    12    1
    25    11    40    1
    26    11    41    1
    27    12    13    1
    28    12    42    1
    29    12    43    1
    30    13    14    1
    31    13    44    1
    32    14    15    1
    33    14    45    1
    34    14    46    1
    35    15    47    1
    36    15    48    1
    37    16    17    2
    38    16    18    2
    39    16    19    1
    40    19    28   ar
    41    19    20   ar
    42    20    21   ar
    43    20    49    1
    44    21    22   ar
    45    21    50    1
    46    22    23    1
    47    22    27   ar
    48    23    24    1
    49    23    51    1
    50    23    52    1
    51    24    25    1
    52    24    26    1
    53    24    53    1
    54    25    54    1
    55    25    55    1
    56    25    56    1
    57    26    57    1
    58    26    58    1
    59    26    59    1
    60    27    28   ar
    61    27    60    1
    62    28    61    1
