@<TRIPOS>MOLECULE
ZINC000001119324
 47 48 0 0 0
SMALL
GASTEIGER

@<TRIPOS>ATOM
      1 C          -1.1448    1.4571   -1.7941 C.3     1  UNL1        0.0788
      2 O          -1.3671    0.7549   -3.0186 O.3     1  UNL1       -0.4951
      3 C          -0.3502   -0.0227   -3.4778 C.ar    1  UNL1        0.1202
      4 C           0.8334   -0.1109   -2.7601 C.ar    1  UNL1       -0.0182
      5 C           1.8665   -0.9006   -3.2254 C.ar    1  UNL1       -0.0356
      6 C           1.7199   -1.6066   -4.4121 C.ar    1  UNL1        0.0519
      7 N           2.7659   -2.4074   -4.8841 N.pl3   1  UNL1       -0.1960
      8 C           3.1360   -3.6284   -4.1641 C.3     1  UNL1        0.1191
      9 H           4.0149   -4.0732   -4.6308 H       1  UNL1        0.0612
     10 C           3.4511   -3.2853   -2.7067 C.3     1  UNL1       -0.0362
     11 C           1.9913   -4.6073   -4.2135 C.2     1  UNL1        0.2392
     12 O           0.8543   -4.2048   -4.3413 O.2     1  UNL1       -0.2734
     13 N           2.2310   -5.9300   -4.1159 N.am    1  UNL1       -0.2839
     14 C           1.1816   -6.8439   -4.2626 C.ar    1  UNL1        0.0335
     15 C           1.1693   -8.0149   -3.5162 C.ar    1  UNL1       -0.0399
     16 C           0.1321   -8.9149   -3.6633 C.ar    1  UNL1       -0.0484
     17 C          -0.8931   -8.6513   -4.5530 C.ar    1  UNL1        0.0549
     18 C          -2.0230   -9.6358   -4.7114 C.3     1  UNL1        0.4174
     19 F          -3.0429   -9.3248   -3.8057 F       1  UNL1       -0.1659
     20 F          -2.5217   -9.5673   -6.0167 F       1  UNL1       -0.1659
     21 F          -1.5534  -10.9292   -4.4588 F       1  UNL1       -0.1659
     22 C          -0.8840   -7.4859   -5.2974 C.ar    1  UNL1       -0.0484
     23 C           0.1474   -6.5791   -5.1507 C.ar    1  UNL1       -0.0399
     24 S           3.5854   -1.9750   -6.2566 S.O2    1  UNL1        0.0432
     25 C           4.9501   -0.9387   -5.6614 C.3     1  UNL1        0.0738
     26 O           4.0801   -3.2037   -6.7712 O.2     1  UNL1       -0.1552
     27 O           2.6516   -1.1958   -6.9915 O.2     1  UNL1       -0.1552
     28 C           0.5346   -1.5178   -5.1300 C.ar    1  UNL1       -0.0356
     29 C          -0.4994   -0.7317   -4.6605 C.ar    1  UNL1       -0.0182
     30 H          -0.9400    0.7422   -0.9972 H       1  UNL1        0.0660
     31 H          -0.2927    2.1271   -1.9090 H       1  UNL1        0.0660
     32 H          -2.0322    2.0378   -1.5420 H       1  UNL1        0.0660
     33 H           0.9474    0.4385   -1.8373 H       1  UNL1        0.0655
     34 H           2.7881   -0.9689   -2.6666 H       1  UNL1        0.0638
     35 H           2.5442   -2.9397   -2.2106 H       1  UNL1        0.0253
     36 H           3.8279   -4.1726   -2.1979 H       1  UNL1        0.0253
     37 H           4.2055   -2.4994   -2.6734 H       1  UNL1        0.0253
     38 H           3.1310   -6.2484   -3.9439 H       1  UNL1        0.1549
     39 H           1.9701   -8.2217   -2.8216 H       1  UNL1        0.0636
     40 H           0.1219   -9.8258   -3.0831 H       1  UNL1        0.0624
     41 H          -1.6862   -7.2829   -5.9915 H       1  UNL1        0.0624
     42 H           0.1540   -5.6692   -5.7324 H       1  UNL1        0.0636
     43 H           5.6550   -1.5529   -5.1009 H       1  UNL1        0.0482
     44 H           5.4595   -0.4851   -6.5116 H       1  UNL1        0.0482
     45 H           4.5559   -0.1554   -5.0139 H       1  UNL1        0.0482
     46 H           0.4198   -2.0665   -6.0532 H       1  UNL1        0.0638
     47 H          -1.4215   -0.6628   -5.2186 H       1  UNL1        0.0655
@<TRIPOS>BOND
     1     1     2    1
     2     1    30    1
     3     1    31    1
     4     1    32    1
     5     2     3    1
     6     3    29   ar
     7     3     4   ar
     8     4     5   ar
     9     4    33    1
    10     5     6   ar
    11     5    34    1
    12     6     7    1
    13     6    28   ar
    14     7     8    1
    15    24     7    1
    16     8     9    1
    17     8    10    1
    18     8    11    1
    19    10    35    1
    20    10    36    1
    21    10    37    1
    22    11    12    2
    23    11    13   am
    24    13    14    1
    25    13    38    1
    26    14    23   ar
    27    14    15   ar
    28    15    16   ar
    29    15    39    1
    30    16    17   ar
    31    16    40    1
    32    17    18    1
    33    17    22   ar
    34    18    19    1
    35    18    20    1
    36    18    21    1
    37    22    23   ar
    38    22    41    1
    39    23    42    1
    40    24    25    1
    41    24    26    2
    42    24    27    2
    43    25    43    1
    44    25    44    1
    45    25    45    1
    46    28    29   ar
    47    28    46    1
    48    29    47    1
