@<TRIPOS>MOLECULE
ZINC000028654811
 46 48 0 0 0
SMALL
GASTEIGER

@<TRIPOS>ATOM
      1 C          -1.0422    1.7074    0.5490 C.3     1  UNL1       -0.0372
      2 C          -1.0396    0.1927    0.7650 C.3     1  UNL1        0.0720
      3 H          -0.0138   -0.1755    0.7493 H       1  UNL1        0.0609
      4 C          -1.8440   -0.4849   -0.3503 C.3     1  UNL1        0.0411
      5 N          -1.9845   -1.9119   -0.0198 N.am    1  UNL1       -0.2926
      6 C          -1.6767   -2.8662   -0.9203 C.2     1  UNL1        0.2473
      7 O          -1.3693   -2.5551   -2.0547 O.2     1  UNL1       -0.2700
      8 C          -1.7126   -4.2893   -0.5293 C.ar    1  UNL1        0.0446
      9 C          -0.9585   -4.7386    0.5546 C.ar    1  UNL1       -0.0490
     10 C          -0.9958   -6.0697    0.9157 C.ar    1  UNL1       -0.0610
     11 C          -1.7785   -6.9662    0.2078 C.ar    1  UNL1       -0.0611
     12 C          -2.5317   -6.5395   -0.8679 C.ar    1  UNL1       -0.0533
     13 C          -2.5122   -5.1996   -1.2437 C.ar    1  UNL1       -0.0058
     14 C          -3.3190   -4.7372   -2.3976 C.ar    1  UNL1       -0.0171
     15 C          -4.2453   -3.7077   -2.2362 C.ar    1  UNL1       -0.0535
     16 C          -4.9937   -3.2814   -3.3143 C.ar    1  UNL1       -0.0495
     17 C          -4.8264   -3.8734   -4.5533 C.ar    1  UNL1        0.0548
     18 C          -5.6469   -3.4032   -5.7267 C.3     1  UNL1        0.4174
     19 F          -4.9689   -2.3727   -6.3868 F       1  UNL1       -0.1659
     20 F          -5.8502   -4.4685   -6.6104 F       1  UNL1       -0.1659
     21 F          -6.8832   -2.9318   -5.2722 F       1  UNL1       -0.1659
     22 C          -3.9086   -4.8950   -4.7197 C.ar    1  UNL1       -0.0495
     23 C          -3.1506   -5.3262   -3.6502 C.ar    1  UNL1       -0.0535
     24 C          -2.4708   -2.2662    1.3231 C.3     1  UNL1        0.0411
     25 C          -1.6359   -1.5018    2.3569 C.3     1  UNL1        0.0720
     26 H          -2.0667   -1.6418    3.3483 H       1  UNL1        0.0609
     27 C          -0.1997   -2.0291    2.3447 C.3     1  UNL1       -0.0372
     28 O          -1.6366   -0.1105    2.0281 O.3     1  UNL1       -0.3708
     29 H          -0.4716    2.1887    1.3434 H       1  UNL1        0.0255
     30 H          -0.5886    1.9378   -0.4149 H       1  UNL1        0.0255
     31 H          -2.0683    2.0749    0.5648 H       1  UNL1        0.0255
     32 H          -2.8300   -0.0259   -0.4226 H       1  UNL1        0.0490
     33 H          -1.3182   -0.3778   -1.2991 H       1  UNL1        0.0490
     34 H          -0.3453   -4.0449    1.1107 H       1  UNL1        0.0625
     35 H          -0.4107   -6.4146    1.7554 H       1  UNL1        0.0618
     36 H          -1.7997   -8.0061    0.4987 H       1  UNL1        0.0618
     37 H          -3.1396   -7.2448   -1.4151 H       1  UNL1        0.0624
     38 H          -4.3770   -3.2450   -1.2692 H       1  UNL1        0.0624
     39 H          -5.7118   -2.4842   -3.1904 H       1  UNL1        0.0623
     40 H          -3.7823   -5.3534   -5.6894 H       1  UNL1        0.0623
     41 H          -2.4342   -6.1236   -3.7813 H       1  UNL1        0.0624
     42 H          -3.5199   -1.9866    1.4193 H       1  UNL1        0.0490
     43 H          -2.3601   -3.3388    1.4825 H       1  UNL1        0.0490
     44 H           0.2311   -1.8871    1.3535 H       1  UNL1        0.0255
     45 H           0.3933   -1.4852    3.0799 H       1  UNL1        0.0255
     46 H          -0.2003   -3.0907    2.5919 H       1  UNL1        0.0255
@<TRIPOS>BOND
     1     1     2    1
     2     1    29    1
     3     1    30    1
     4     1    31    1
     5     2     3    1
     6     2    28    1
     7     2     4    1
     8     4     5    1
     9     4    32    1
    10     4    33    1
    11     5     6   am
    12     5    24    1
    13     6     7    2
    14     6     8    1
    15     8    13   ar
    16     8     9   ar
    17     9    10   ar
    18     9    34    1
    19    10    11   ar
    20    10    35    1
    21    11    12   ar
    22    11    36    1
    23    12    13   ar
    24    12    37    1
    25    13    14    1
    26    14    23   ar
    27    14    15   ar
    28    15    16   ar
    29    15    38    1
    30    16    17   ar
    31    16    39    1
    32    17    18    1
    33    17    22   ar
    34    18    19    1
    35    18    20    1
    36    18    21    1
    37    22    23   ar
    38    22    40    1
    39    23    41    1
    40    24    25    1
    41    24    42    1
    42    24    43    1
    43    25    26    1
    44    25    27    1
    45    25    28    1
    46    27    44    1
    47    27    45    1
    48    27    46    1
