@<TRIPOS>MOLECULE
ZINC000012982528
 48 50 0 0 0
SMALL
GASTEIGER

@<TRIPOS>ATOM
      1 C         -10.4317   -8.4475    2.0254 C.3     1  UNL1        0.0788
      2 O         -10.2895   -7.0772    2.4050 O.3     1  UNL1       -0.4951
      3 C          -9.1560   -6.4414    2.0079 C.ar    1  UNL1        0.1202
      4 C          -8.2028   -7.1207    1.2631 C.ar    1  UNL1       -0.0181
      5 C          -7.0516   -6.4720    0.8602 C.ar    1  UNL1       -0.0319
      6 C          -6.8487   -5.1470    1.1989 C.ar    1  UNL1        0.1057
      7 S          -5.3791   -4.3226    0.6839 S.O2    1  UNL1        0.0615
      8 O          -5.2485   -3.1781    1.5159 O.2     1  UNL1       -0.1528
      9 O          -4.3754   -5.3226    0.5746 O.2     1  UNL1       -0.1528
     10 N          -5.6456   -3.7579   -0.8498 N.3     1  UNL1       -0.1647
     11 C          -6.3007   -2.4829   -1.1942 C.3     1  UNL1        0.0214
     12 C          -5.7679   -2.1319   -2.6058 C.3     1  UNL1       -0.0366
     13 C          -5.6881   -3.5337   -3.2661 C.3     1  UNL1       -0.0260
     14 C          -5.2624   -4.4420   -2.0934 C.3     1  UNL1        0.1081
     15 H          -5.7802   -5.3989   -2.1589 H       1  UNL1        0.0576
     16 C          -3.7720   -4.6623   -2.1307 C.2     1  UNL1        0.2361
     17 O          -3.0428   -3.9961   -1.4269 O.2     1  UNL1       -0.2737
     18 N          -3.2496   -5.5996   -2.9461 N.am    1  UNL1       -0.2842
     19 C          -1.8615   -5.7450   -3.0459 C.ar    1  UNL1        0.0335
     20 C          -1.3080   -6.9972   -3.2788 C.ar    1  UNL1       -0.0399
     21 C           0.0625   -7.1374   -3.3768 C.ar    1  UNL1       -0.0484
     22 C           0.8834   -6.0327   -3.2428 C.ar    1  UNL1        0.0549
     23 C           2.3784   -6.1894   -3.3497 C.3     1  UNL1        0.4174
     24 F           2.7700   -6.0274   -4.6830 F       1  UNL1       -0.1659
     25 F           3.0065   -5.2217   -2.5584 F       1  UNL1       -0.1659
     26 F           2.7465   -7.4644   -2.9071 F       1  UNL1       -0.1659
     27 C           0.3353   -4.7844   -3.0113 C.ar    1  UNL1       -0.0484
     28 C          -1.0347   -4.6366   -2.9180 C.ar    1  UNL1       -0.0399
     29 C          -7.7974   -4.4676    1.9407 C.ar    1  UNL1       -0.0319
     30 C          -8.9526   -5.1102    2.3416 C.ar    1  UNL1       -0.0181
     31 H         -11.3777   -8.8334    2.4051 H       1  UNL1        0.0660
     32 H         -10.4169   -8.5268    0.9384 H       1  UNL1        0.0660
     33 H          -9.6088   -9.0275    2.4432 H       1  UNL1        0.0660
     34 H          -8.3605   -8.1560    0.9988 H       1  UNL1        0.0655
     35 H          -6.3093   -7.0005    0.2804 H       1  UNL1        0.0638
     36 H          -7.3834   -2.6068   -1.2173 H       1  UNL1        0.0444
     37 H          -6.0219   -1.7081   -0.4800 H       1  UNL1        0.0444
     38 H          -6.4678   -1.4883   -3.1387 H       1  UNL1        0.0279
     39 H          -4.7820   -1.6706   -2.5477 H       1  UNL1        0.0279
     40 H          -6.6611   -3.8321   -3.6563 H       1  UNL1        0.0286
     41 H          -4.9350   -3.5465   -4.0539 H       1  UNL1        0.0286
     42 H          -3.8358   -6.1734   -3.4638 H       1  UNL1        0.1549
     43 H          -1.9485   -7.8605   -3.3829 H       1  UNL1        0.0636
     44 H           0.4936   -8.1109   -3.5579 H       1  UNL1        0.0624
     45 H           0.9791   -3.9235   -2.9071 H       1  UNL1        0.0624
     46 H          -1.4622   -3.6614   -2.7372 H       1  UNL1        0.0636
     47 H          -7.6367   -3.4325    2.2038 H       1  UNL1        0.0638
     48 H          -9.6933   -4.5791    2.9210 H       1  UNL1        0.0655
@<TRIPOS>BOND
     1     1     2    1
     2     1    31    1
     3     1    32    1
     4     1    33    1
     5     2     3    1
     6     3    30   ar
     7     3     4   ar
     8     4     5   ar
     9     4    34    1
    10     5     6   ar
    11     5    35    1
    12     6     7    1
    13     6    29   ar
    14     7     8    2
    15     7     9    2
    16     7    10    1
    17    10    14    1
    18    10    11    1
    19    11    12    1
    20    11    36    1
    21    11    37    1
    22    12    13    1
    23    12    38    1
    24    12    39    1
    25    13    14    1
    26    13    40    1
    27    13    41    1
    28    14    15    1
    29    14    16    1
    30    16    17    2
    31    16    18   am
    32    18    19    1
    33    18    42    1
    34    19    28   ar
    35    19    20   ar
    36    20    21   ar
    37    20    43    1
    38    21    22   ar
    39    21    44    1
    40    22    23    1
    41    22    27   ar
    42    23    24    1
    43    23    25    1
    44    23    26    1
    45    27    28   ar
    46    27    45    1
    47    28    46    1
    48    29    30   ar
    49    29    47    1
    50    30    48    1
