@<TRIPOS>MOLECULE
ZINC000077200829
 44 46 0 0 0
SMALL
GASTEIGER

@<TRIPOS>ATOM
      1 C          -1.5624   -2.4373    0.7723 C.3     1  UNL1        0.0116
      2 N          -0.3848   -1.7401    0.2496 N.ar    1  UNL1       -0.3523
      3 C           0.1893   -1.9537   -0.9685 C.ar    1  UNL1        0.0046
      4 C           1.2471   -1.1259   -1.0871 C.ar    1  UNL1       -0.0439
      5 C           1.3292   -0.3735    0.1013 C.ar    1  UNL1       -0.0397
      6 C           0.3148   -0.7662    0.8985 C.ar    1  UNL1        0.0342
      7 C           0.0129   -0.2287    2.2736 C.3     1  UNL1        0.0607
      8 N           1.2381    0.3140    2.8656 N.3     1  UNL1       -0.1721
      9 C           1.6383    1.6950    2.5842 C.3     1  UNL1        0.0320
     10 C           0.7744    2.4958    1.6079 C.3     1  UNL1       -0.0342
     11 C           0.7322    2.8129    3.1041 C.3     1  UNL1       -0.0342
     12 S           2.1708   -0.6334    3.8529 S.O2    1  UNL1        0.0365
     13 O           2.8446    0.2932    4.6935 O.2     1  UNL1       -0.1577
     14 O           1.2599   -1.5823    4.3907 O.2     1  UNL1       -0.1577
     15 C           3.3427   -1.4421    2.7290 C.3     1  UNL1        0.1069
     16 C           4.2571   -2.3423    3.5194 C.ar    1  UNL1       -0.0250
     17 C           5.4406   -1.8461    4.0332 C.ar    1  UNL1       -0.0564
     18 C           6.2793   -2.6718    4.7582 C.ar    1  UNL1       -0.0498
     19 C           5.9344   -3.9936    4.9697 C.ar    1  UNL1        0.0548
     20 C           6.8490   -4.8939    5.7596 C.3     1  UNL1        0.4174
     21 F           6.5078   -4.8319    7.1150 F       1  UNL1       -0.1659
     22 F           6.7146   -6.2101    5.3048 F       1  UNL1       -0.1659
     23 F           8.1735   -4.4756    5.5925 F       1  UNL1       -0.1659
     24 C           4.7502   -4.4895    4.4570 C.ar    1  UNL1       -0.0498
     25 C           3.9097   -3.6627    3.7353 C.ar    1  UNL1       -0.0564
     26 H          -2.4550   -1.8459    0.5684 H       1  UNL1        0.0456
     27 H          -1.6530   -3.4101    0.2890 H       1  UNL1        0.0456
     28 H          -1.4555   -2.5747    1.8483 H       1  UNL1        0.0456
     29 H          -0.1453   -2.6638   -1.7103 H       1  UNL1        0.0809
     30 H           1.9097   -1.0529   -1.9368 H       1  UNL1        0.0633
     31 H           2.0662    0.3821    0.3300 H       1  UNL1        0.0636
     32 H          -0.7351    0.5606    2.1990 H       1  UNL1        0.0508
     33 H          -0.3690   -1.0330    2.9023 H       1  UNL1        0.0508
     34 H           2.7123    1.8807    2.5755 H       1  UNL1        0.0480
     35 H           1.2800    3.2085    0.9564 H       1  UNL1        0.0281
     36 H          -0.0917    1.9952    1.1749 H       1  UNL1        0.0281
     37 H          -0.1616    2.5209    3.6554 H       1  UNL1        0.0281
     38 H           1.2101    3.7342    3.4369 H       1  UNL1        0.0281
     39 H           2.7941   -2.0342    1.9966 H       1  UNL1        0.0565
     40 H           3.9342   -0.6848    2.2145 H       1  UNL1        0.0565
     41 H           5.7101   -0.8134    3.8680 H       1  UNL1        0.0621
     42 H           7.2043   -2.2843    5.1590 H       1  UNL1        0.0623
     43 H           4.4805   -5.5221    4.6226 H       1  UNL1        0.0623
     44 H           2.9845   -4.0501    3.3348 H       1  UNL1        0.0621
@<TRIPOS>BOND
     1     1     2    1
     2     1    26    1
     3     1    27    1
     4     1    28    1
     5     2     6   ar
     6     2     3   ar
     7     3     4   ar
     8     3    29    1
     9     4     5   ar
    10     4    30    1
    11     5     6   ar
    12     5    31    1
    13     6     7    1
    14     7     8    1
    15     7    32    1
    16     7    33    1
    17     8     9    1
    18    12     8    1
    19     9    11    1
    20     9    10    1
    21     9    34    1
    22    10    11    1
    23    10    35    1
    24    10    36    1
    25    11    37    1
    26    11    38    1
    27    12    13    2
    28    12    14    2
    29    12    15    1
    30    15    16    1
    31    15    39    1
    32    15    40    1
    33    16    25   ar
    34    16    17   ar
    35    17    18   ar
    36    17    41    1
    37    18    19   ar
    38    18    42    1
    39    19    20    1
    40    19    24   ar
    41    20    21    1
    42    20    22    1
    43    20    23    1
    44    24    25   ar
    45    24    43    1
    46    25    44    1
