@<TRIPOS>MOLECULE
ZINC000409391461
 63 64 0 0 0
SMALL
GASTEIGER

@<TRIPOS>ATOM
      1 C          -0.0187    1.5258    0.0104 C.3     1  UNL1       -0.0652
      2 C           0.0021   -0.0041    0.0020 C.3     1  UNL1       -0.0542
      3 C           0.7182   -0.4975   -1.2568 C.3     1  UNL1       -0.0350
      4 C           0.7390   -2.0273   -1.2652 C.3     1  UNL1        0.0203
      5 H           1.1870   -2.3897   -0.3400 H       1  UNL1        0.0495
      6 C           1.5619   -2.5197   -2.4574 C.3     1  UNL1       -0.0466
      7 N          -0.6313   -2.5337   -1.3752 N.am    1  UNL1       -0.3116
      8 C          -0.9349   -3.7625   -0.9121 C.2     1  UNL1        0.2290
      9 O          -0.0737   -4.4490   -0.4043 O.2     1  UNL1       -0.2743
     10 C          -2.3445   -4.2833   -1.0253 C.3     1  UNL1        0.0968
     11 N          -2.4146   -5.6306   -0.4541 N.3     1  UNL1       -0.1675
     12 C          -2.6151   -5.8059    0.9865 C.3     1  UNL1        0.0250
     13 C          -4.1109   -5.7525    1.3035 C.3     1  UNL1       -0.0132
     14 C          -4.3171   -5.9328    2.7854 C.ar    1  UNL1       -0.0461
     15 C          -4.4811   -7.2008    3.3111 C.ar    1  UNL1       -0.0585
     16 C          -4.6703   -7.3662    4.6704 C.ar    1  UNL1       -0.0615
     17 C          -4.6950   -6.2637    5.5040 C.ar    1  UNL1       -0.0617
     18 C          -4.5302   -4.9959    4.9784 C.ar    1  UNL1       -0.0615
     19 C          -4.3367   -4.8308    3.6196 C.ar    1  UNL1       -0.0585
     20 S          -2.2672   -6.9553   -1.4368 S.O2    1  UNL1        0.0614
     21 O          -2.9039   -8.0301   -0.7596 O.2     1  UNL1       -0.1528
     22 O          -2.6374   -6.5304   -2.7413 O.2     1  UNL1       -0.1528
     23 C          -0.5541   -7.3603   -1.5129 C.ar    1  UNL1        0.1092
     24 C           0.2452   -6.7957   -2.4889 C.ar    1  UNL1       -0.0317
     25 C           1.5902   -7.1107   -2.5531 C.ar    1  UNL1       -0.0145
     26 C           2.1392   -7.9935   -1.6376 C.ar    1  UNL1        0.1616
     27 O           3.4618   -8.3040   -1.6991 O.3     1  UNL1       -0.4915
     28 C           4.2266   -7.6827   -2.7341 C.3     1  UNL1        0.0790
     29 C           1.3343   -8.5618   -0.6544 C.ar    1  UNL1        0.1633
     30 O           1.8688   -9.4286    0.2469 O.3     1  UNL1       -0.4914
     31 C           0.9832   -9.9729    1.2275 C.3     1  UNL1        0.0790
     32 C          -0.0111   -8.2379   -0.5925 C.ar    1  UNL1        0.0101
     33 H           1.0039    1.9031    0.0027 H       1  UNL1        0.0230
     34 H          -0.5459    1.8868   -0.8726 H       1  UNL1        0.0230
     35 H          -0.5289    1.8773    0.9072 H       1  UNL1        0.0230
     36 H           0.5293   -0.3651    0.8851 H       1  UNL1        0.0263
     37 H          -1.0205   -0.3814    0.0098 H       1  UNL1        0.0263
     38 H           0.1910   -0.1364   -2.1398 H       1  UNL1        0.0283
     39 H           1.7408   -0.1202   -1.2645 H       1  UNL1        0.0283
     40 H           2.5814   -2.1429   -2.3755 H       1  UNL1        0.0247
     41 H           1.5766   -3.6095   -2.4634 H       1  UNL1        0.0247
     42 H           1.1138   -2.1573   -3.3826 H       1  UNL1        0.0247
     43 H          -1.3201   -1.9846   -1.7814 H       1  UNL1        0.1490
     44 H          -3.0206   -3.6229   -0.4824 H       1  UNL1        0.0539
     45 H          -2.6358   -4.3182   -2.0751 H       1  UNL1        0.0539
     46 H          -2.2126   -6.7708    1.2946 H       1  UNL1        0.0447
     47 H          -2.1010   -5.0093    1.5244 H       1  UNL1        0.0447
     48 H          -4.5134   -4.7875    0.9954 H       1  UNL1        0.0326
     49 H          -4.6249   -6.5491    0.7655 H       1  UNL1        0.0326
     50 H          -4.4617   -8.0621    2.6599 H       1  UNL1        0.0620
     51 H          -4.7990   -8.3567    5.0811 H       1  UNL1        0.0618
     52 H          -4.8435   -6.3929    6.5660 H       1  UNL1        0.0618
     53 H          -4.5499   -4.1345    5.6296 H       1  UNL1        0.0618
     54 H          -4.2079   -3.8403    3.2089 H       1  UNL1        0.0620
     55 H          -0.1817   -6.1072   -3.2032 H       1  UNL1        0.0638
     56 H           2.2124   -6.6686   -3.3172 H       1  UNL1        0.0656
     57 H           3.8156   -7.9587   -3.7052 H       1  UNL1        0.0660
     58 H           4.1851   -6.5999   -2.6164 H       1  UNL1        0.0660
     59 H           5.2625   -8.0157   -2.6701 H       1  UNL1        0.0660
     60 H           0.5540   -9.1637    1.8184 H       1  UNL1        0.0660
     61 H           0.1844  -10.5230    0.7302 H       1  UNL1        0.0660
     62 H           1.5358  -10.6470    1.8819 H       1  UNL1        0.0660
     63 H          -0.6378   -8.6775    0.1694 H       1  UNL1        0.0675
@<TRIPOS>BOND
     1     1     2    1
     2     1    33    1
     3     1    34    1
     4     1    35    1
     5     2     3    1
     6     2    36    1
     7     2    37    1
     8     3     4    1
     9     3    38    1
    10     3    39    1
    11     4     5    1
    12     4     6    1
    13     4     7    1
    14     6    40    1
    15     6    41    1
    16     6    42    1
    17     7     8   am
    18     7    43    1
    19     8     9    2
    20     8    10    1
    21    10    11    1
    22    10    44    1
    23    10    45    1
    24    11    12    1
    25    20    11    1
    26    12    13    1
    27    12    46    1
    28    12    47    1
    29    13    14    1
    30    13    48    1
    31    13    49    1
    32    14    19   ar
    33    14    15   ar
    34    15    16   ar
    35    15    50    1
    36    16    17   ar
    37    16    51    1
    38    17    18   ar
    39    17    52    1
    40    18    19   ar
    41    18    53    1
    42    19    54    1
    43    20    21    2
    44    20    22    2
    45    20    23    1
    46    23    32   ar
    47    23    24   ar
    48    24    25   ar
    49    24    55    1
    50    25    26   ar
    51    25    56    1
    52    26    27    1
    53    26    29   ar
    54    27    28    1
    55    28    57    1
    56    28    58    1
    57    28    59    1
    58    29    30    1
    59    29    32   ar
    60    30    31    1
    61    31    60    1
    62    31    61    1
    63    31    62    1
    64    32    63    1
