@<TRIPOS>MOLECULE
ZINC000237692985
 35 36 0 0 0
SMALL
GASTEIGER

@<TRIPOS>ATOM
      1 C          -0.0187    1.5258    0.0104 C.3     1  UNL1       -0.0484
      2 C           0.0021   -0.0041    0.0020 C.3     1  UNL1        0.0192
      3 H          -1.0204   -0.3817    0.0098 H       1  UNL1        0.0471
      4 C           0.7204   -0.4988   -1.2579 C.3     1  UNL1        0.0357
      5 N           0.8606   -1.9604   -1.1723 N.3     1  UNL1       -0.1738
      6 S           0.3779   -2.9351   -2.4210 S.O2    1  UNL1        0.0637
      7 O           0.1205   -4.2133   -1.8559 O.2     1  UNL1       -0.1528
      8 O          -0.5928   -2.1990   -3.1526 O.2     1  UNL1       -0.1528
      9 C           1.7625   -3.1345   -3.4923 C.ar    1  UNL1        0.1410
     10 C           2.3341   -4.3815   -3.6583 C.ar    1  UNL1       -0.0209
     11 C           3.4207   -4.5382   -4.4989 C.ar    1  UNL1        0.0568
     12 C           4.0432   -5.8987   -4.6790 C.3     1  UNL1        0.4175
     13 F           3.4207   -6.5591   -5.7437 F       1  UNL1       -0.1659
     14 F           5.4075   -5.7547   -4.9532 F       1  UNL1       -0.1659
     15 F           3.8792   -6.6454   -3.5073 F       1  UNL1       -0.1659
     16 C           3.9361   -3.4480   -5.1745 C.ar    1  UNL1       -0.0473
     17 C           3.3663   -2.1996   -5.0097 C.ar    1  UNL1       -0.0240
     18 C           2.2748   -2.0425   -4.1727 C.ar    1  UNL1        0.1496
     19 F           1.7170   -0.8227   -4.0109 F       1  UNL1       -0.2034
     20 C           1.4413   -2.5333    0.0515 C.3     1  UNL1        0.0331
     21 C           0.6946   -1.9584    1.2599 C.3     1  UNL1        0.0106
     22 N           0.7136   -0.4912    1.1913 N.3     1  UNL1       -0.3110
     23 H           1.0039    1.9031    0.0027 H       1  UNL1        0.0245
     24 H          -0.5459    1.8868   -0.8726 H       1  UNL1        0.0245
     25 H          -0.5289    1.8773    0.9072 H       1  UNL1        0.0245
     26 H           0.1348   -0.2381   -2.1395 H       1  UNL1        0.0459
     27 H           1.7069   -0.0394   -1.3212 H       1  UNL1        0.0459
     28 H           1.9322   -5.2340   -3.1309 H       1  UNL1        0.0643
     29 H           4.7846   -3.5717   -5.8311 H       1  UNL1        0.0624
     30 H           3.7696   -1.3478   -5.5371 H       1  UNL1        0.0647
     31 H           1.3323   -3.6177    0.0357 H       1  UNL1        0.0456
     32 H           2.4971   -2.2695    0.1141 H       1  UNL1        0.0456
     33 H          -0.3374   -2.3093    1.2504 H       1  UNL1        0.0437
     34 H           1.1820   -2.2859    2.1782 H       1  UNL1        0.0437
     35 H           1.6593   -0.1403    1.2152 H       1  UNL1        0.1223
@<TRIPOS>BOND
     1     1     2    1
     2     1    23    1
     3     1    24    1
     4     1    25    1
     5     2     3    1
     6     2    22    1
     7     2     4    1
     8     4     5    1
     9     4    26    1
    10     4    27    1
    11     6     5    1
    12     5    20    1
    13     6     7    2
    14     6     8    2
    15     6     9    1
    16     9    18   ar
    17     9    10   ar
    18    10    11   ar
    19    10    28    1
    20    11    12    1
    21    11    16   ar
    22    12    13    1
    23    12    14    1
    24    12    15    1
    25    16    17   ar
    26    16    29    1
    27    17    18   ar
    28    17    30    1
    29    18    19    1
    30    20    21    1
    31    20    31    1
    32    20    32    1
    33    21    22    1
    34    21    33    1
    35    21    34    1
    36    22    35    1
