@<TRIPOS>MOLECULE
ZINC000408534421
 62 63 0 0 0
SMALL
GASTEIGER

@<TRIPOS>ATOM
      1 C          -0.0187    1.5258    0.0104 C.3     1  UNL1       -0.0652
      2 C           0.0021   -0.0041    0.0020 C.3     1  UNL1       -0.0542
      3 C           0.7421   -0.5109    1.2415 C.3     1  UNL1       -0.0350
      4 C           0.7628   -2.0407    1.2331 C.3     1  UNL1        0.0203
      5 H           1.1931   -2.3931    0.2957 H       1  UNL1        0.0495
      6 C           1.6083   -2.5458    2.4040 C.3     1  UNL1       -0.0466
      7 N          -0.6052   -2.5484    1.3639 N.am    1  UNL1       -0.3116
      8 C          -0.9177   -3.7721    0.8935 C.2     1  UNL1        0.2290
      9 O          -0.0664   -4.4531    0.3620 O.2     1  UNL1       -0.2743
     10 C          -2.3249   -4.2944    1.0279 C.3     1  UNL1        0.0968
     11 N          -2.4060   -5.6354    0.4437 N.3     1  UNL1       -0.1675
     12 C          -2.0445   -6.8069    1.2457 C.3     1  UNL1        0.0250
     13 C          -3.2533   -7.2528    2.0709 C.3     1  UNL1       -0.0132
     14 C          -2.8814   -8.4579    2.8958 C.ar    1  UNL1       -0.0461
     15 C          -3.0505   -9.7286    2.3785 C.ar    1  UNL1       -0.0585
     16 C          -2.7094  -10.8339    3.1352 C.ar    1  UNL1       -0.0615
     17 C          -2.1987  -10.6686    4.4091 C.ar    1  UNL1       -0.0617
     18 C          -2.0287   -9.3979    4.9261 C.ar    1  UNL1       -0.0615
     19 C          -2.3659   -8.2924    4.1677 C.ar    1  UNL1       -0.0585
     20 S          -2.9064   -5.8270   -1.1232 S.O2    1  UNL1        0.0613
     21 O          -3.4050   -7.1537   -1.2257 O.2     1  UNL1       -0.1528
     22 O          -3.6812   -4.6788   -1.4403 O.2     1  UNL1       -0.1528
     23 C          -1.4705   -5.7551   -2.1418 C.ar    1  UNL1        0.1060
     24 C          -1.0372   -4.5400   -2.6388 C.ar    1  UNL1       -0.0319
     25 C           0.0888   -4.4809   -3.4373 C.ar    1  UNL1       -0.0178
     26 C           0.7846   -5.6420   -3.7402 C.ar    1  UNL1        0.1231
     27 O           1.8926   -5.5864   -4.5251 O.3     1  UNL1       -0.4948
     28 C           2.2844   -4.2983   -5.0041 C.3     1  UNL1        0.0788
     29 C           0.3477   -6.8603   -3.2401 C.ar    1  UNL1       -0.0070
     30 C           1.1015   -8.1236   -3.5668 C.3     1  UNL1       -0.0362
     31 C          -0.7755   -6.9134   -2.4379 C.ar    1  UNL1       -0.0290
     32 H           1.0039    1.9031    0.0027 H       1  UNL1        0.0230
     33 H          -0.5459    1.8868   -0.8726 H       1  UNL1        0.0230
     34 H          -0.5289    1.8773    0.9072 H       1  UNL1        0.0230
     35 H          -1.0205   -0.3814    0.0098 H       1  UNL1        0.0263
     36 H           0.5123   -0.3556   -0.8948 H       1  UNL1        0.0263
     37 H           1.7647   -0.1336    1.2338 H       1  UNL1        0.0283
     38 H           0.2319   -0.1594    2.1383 H       1  UNL1        0.0283
     39 H           1.1780   -2.1934    3.3415 H       1  UNL1        0.0247
     40 H           1.6231   -3.6357    2.3980 H       1  UNL1        0.0247
     41 H           2.6261   -2.1681    2.3068 H       1  UNL1        0.0247
     42 H          -1.2861   -2.0038    1.7889 H       1  UNL1        0.1490
     43 H          -2.5961   -4.3405    2.0827 H       1  UNL1        0.0539
     44 H          -3.0112   -3.6282    0.5052 H       1  UNL1        0.0539
     45 H          -1.7359   -7.6177    0.5859 H       1  UNL1        0.0447
     46 H          -1.2230   -6.5499    1.9144 H       1  UNL1        0.0447
     47 H          -3.5619   -6.4420    2.7307 H       1  UNL1        0.0326
     48 H          -4.0748   -7.5098    1.4022 H       1  UNL1        0.0326
     49 H          -3.4495   -9.8577    1.3833 H       1  UNL1        0.0620
     50 H          -2.8422  -11.8267    2.7313 H       1  UNL1        0.0618
     51 H          -1.9329  -11.5323    5.0006 H       1  UNL1        0.0618
     52 H          -1.6301   -9.2687    5.9215 H       1  UNL1        0.0618
     53 H          -2.2330   -7.2996    4.5716 H       1  UNL1        0.0620
     54 H          -1.5795   -3.6363   -2.4030 H       1  UNL1        0.0638
     55 H           0.4267   -3.5314   -3.8257 H       1  UNL1        0.0655
     56 H           3.1808   -4.3955   -5.6165 H       1  UNL1        0.0660
     57 H           1.4793   -3.8732   -5.6034 H       1  UNL1        0.0660
     58 H           2.4918   -3.6436   -4.1577 H       1  UNL1        0.0660
     59 H           1.8678   -8.2952   -2.8109 H       1  UNL1        0.0279
     60 H           0.4100   -8.9660   -3.5809 H       1  UNL1        0.0279
     61 H           1.5720   -8.0234   -4.5449 H       1  UNL1        0.0279
     62 H          -1.1158   -7.8614   -2.0481 H       1  UNL1        0.0641
@<TRIPOS>BOND
     1     1     2    1
     2     1    32    1
     3     1    33    1
     4     1    34    1
     5     2     3    1
     6     2    35    1
     7     2    36    1
     8     3     4    1
     9     3    37    1
    10     3    38    1
    11     4     5    1
    12     4     6    1
    13     4     7    1
    14     6    39    1
    15     6    40    1
    16     6    41    1
    17     7     8   am
    18     7    42    1
    19     8     9    2
    20     8    10    1
    21    10    11    1
    22    10    43    1
    23    10    44    1
    24    11    12    1
    25    20    11    1
    26    12    13    1
    27    12    45    1
    28    12    46    1
    29    13    14    1
    30    13    47    1
    31    13    48    1
    32    14    19   ar
    33    14    15   ar
    34    15    16   ar
    35    15    49    1
    36    16    17   ar
    37    16    50    1
    38    17    18   ar
    39    17    51    1
    40    18    19   ar
    41    18    52    1
    42    19    53    1
    43    20    21    2
    44    20    22    2
    45    20    23    1
    46    23    31   ar
    47    23    24   ar
    48    24    25   ar
    49    24    54    1
    50    25    26   ar
    51    25    55    1
    52    26    27    1
    53    26    29   ar
    54    27    28    1
    55    28    56    1
    56    28    57    1
    57    28    58    1
    58    29    30    1
    59    29    31   ar
    60    30    59    1
    61    30    60    1
    62    30    61    1
    63    31    62    1
