@<TRIPOS>MOLECULE
ZINC000014980934
 47 49 0 0 0
SMALL
GASTEIGER

@<TRIPOS>ATOM
      1 C          -0.0184    1.5028    0.0103 C.3     1  UNL1       -0.0171
      2 C           0.0021   -0.0041    0.0020 C.ar    1  UNL1        0.1071
      3 N           0.0084   -0.7781   -1.0446 N.ar    1  UNL1       -0.0813
      4 O           0.0260   -1.9466   -0.7340 O.2     1  UNL1       -0.3576
      5 C           0.0337   -2.1026    0.5973 C.ar    1  UNL1        0.1607
      6 C           0.0555   -3.4063    1.3528 C.3     1  UNL1       -0.0017
      7 C           0.0244   -0.8570    1.1293 C.ar    1  UNL1        0.1696
      8 S           0.0281   -0.4046    2.8322 S.O2    1  UNL1        0.0659
      9 O          -0.5285    0.9011    2.9018 O.2     1  UNL1       -0.1527
     10 O          -0.5024   -1.5145    3.5435 O.2     1  UNL1       -0.1527
     11 N           1.6108   -0.2636    3.2985 N.3     1  UNL1       -0.1757
     12 C           2.3413   -1.4232    3.8282 C.3     1  UNL1        0.0205
     13 C           3.6321   -1.6026    3.0230 C.3     1  UNL1       -0.0379
     14 C           4.4277   -0.2954    3.0441 C.3     1  UNL1       -0.0407
     15 C           3.6025    0.8165    2.3923 C.3     1  UNL1        0.0365
     16 H           3.3562    0.5344    1.3687 H       1  UNL1        0.0394
     17 C           4.3997    2.0954    2.3838 C.2     1  UNL1        0.1675
     18 O           4.3224    2.8642    3.3182 O.2     1  UNL1       -0.2917
     19 C           5.2719    2.4111    1.2413 C.ar    1  UNL1        0.0177
     20 C           5.3594    1.5296    0.1591 C.ar    1  UNL1       -0.0507
     21 C           6.1789    1.8325   -0.9076 C.ar    1  UNL1       -0.0495
     22 C           6.9142    3.0050   -0.9090 C.ar    1  UNL1        0.0548
     23 C           7.8074    3.3283   -2.0789 C.3     1  UNL1        0.4174
     24 F           7.0842    4.0545   -3.0311 F       1  UNL1       -0.1659
     25 F           8.8950    4.0903   -1.6386 F       1  UNL1       -0.1659
     26 F           8.2723    2.1402   -2.6529 F       1  UNL1       -0.1659
     27 C           6.8331    3.8825    0.1583 C.ar    1  UNL1       -0.0495
     28 C           6.0133    3.5969    1.2296 C.ar    1  UNL1       -0.0507
     29 C           2.3131    1.0219    3.1847 C.3     1  UNL1        0.0303
     30 H           1.0042    1.8801    0.0026 H       1  UNL1        0.0294
     31 H          -0.5455    1.8639   -0.8728 H       1  UNL1        0.0294
     32 H          -0.5286    1.8543    0.9071 H       1  UNL1        0.0294
     33 H           0.0639   -4.2359    0.6459 H       1  UNL1        0.0309
     34 H           0.9490   -3.4505    1.9755 H       1  UNL1        0.0309
     35 H          -0.8308   -3.4755    1.9836 H       1  UNL1        0.0309
     36 H           2.5854   -1.2533    4.8769 H       1  UNL1        0.0444
     37 H           1.7249   -2.3172    3.7346 H       1  UNL1        0.0444
     38 H           4.2296   -2.3993    3.4662 H       1  UNL1        0.0278
     39 H           3.3855   -1.8619    1.9934 H       1  UNL1        0.0278
     40 H           4.6526   -0.0238    4.0755 H       1  UNL1        0.0273
     41 H           5.3584   -0.4278    2.4925 H       1  UNL1        0.0273
     42 H           4.7868    0.6139    0.1590 H       1  UNL1        0.0625
     43 H           6.2475    1.1528   -1.7441 H       1  UNL1        0.0623
     44 H           7.4099    4.7955    0.1499 H       1  UNL1        0.0623
     45 H           5.9510    4.2825    2.0617 H       1  UNL1        0.0625
     46 H           1.6781    1.7423    2.6690 H       1  UNL1        0.0451
     47 H           2.5521    1.3907    4.1822 H       1  UNL1        0.0451
@<TRIPOS>BOND
     1     1     2    1
     2     1    30    1
     3     1    31    1
     4     1    32    1
     5     2     7   ar
     6     2     3   ar
     7     3     4   ar
     8     4     5   ar
     9     5     6    1
    10     5     7   ar
    11     6    33    1
    12     6    34    1
    13     6    35    1
    14     7     8    1
    15     8     9    2
    16     8    10    2
    17     8    11    1
    18    11    29    1
    19    11    12    1
    20    12    13    1
    21    12    36    1
    22    12    37    1
    23    13    14    1
    24    13    38    1
    25    13    39    1
    26    14    15    1
    27    14    40    1
    28    14    41    1
    29    15    16    1
    30    15    17    1
    31    15    29    1
    32    17    18    2
    33    17    19    1
    34    19    28   ar
    35    19    20   ar
    36    20    21   ar
    37    20    42    1
    38    21    22   ar
    39    21    43    1
    40    22    23    1
    41    22    27   ar
    42    23    24    1
    43    23    25    1
    44    23    26    1
    45    27    28   ar
    46    27    44    1
    47    28    45    1
    48    29    46    1
    49    29    47    1
