@<TRIPOS>MOLECULE
ZINC000096374458
 53 54 0 0 0
SMALL
GASTEIGER

@<TRIPOS>ATOM
      1 C          -0.0187    1.5258    0.0104 C.3     1  UNL1       -0.0612
      2 C           0.0021   -0.0041    0.0020 C.3     1  UNL1       -0.0273
      3 C           0.7421   -0.5109    1.2415 C.3     1  UNL1       -0.0612
      4 C          -1.4333   -0.5336    0.0129 C.3     1  UNL1        0.0684
      5 S          -2.2655   -0.0565   -1.5267 S.O2    1  UNL1       -0.0279
      6 O          -2.3878    1.3589   -1.5554 O.2     1  UNL1       -0.1741
      7 O          -1.6287   -0.7200   -2.6100 O.2     1  UNL1       -0.1741
      8 C          -3.9157   -0.7746   -1.2988 C.3     1  UNL1        0.0797
      9 C          -4.5660   -0.1722   -0.0513 C.3     1  UNL1       -0.0148
     10 C          -5.9449   -0.8062    0.1576 C.3     1  UNL1        0.0164
     11 N          -6.7319   -0.6420   -1.0722 N.am    1  UNL1       -0.3014
     12 C          -7.9549   -0.0769   -1.0345 C.2     1  UNL1        0.2159
     13 O          -8.4156    0.3018    0.0216 O.2     1  UNL1       -0.2756
     14 C          -8.7499    0.0844   -2.3045 C.3     1  UNL1        0.0281
     15 C         -10.0911    0.7483   -1.9858 C.3     1  UNL1       -0.0194
     16 C         -10.8861    0.9096   -3.2558 C.ar    1  UNL1       -0.0469
     17 C         -10.7538    2.0587   -4.0127 C.ar    1  UNL1       -0.0580
     18 C         -11.4831    2.2067   -5.1777 C.ar    1  UNL1       -0.0499
     19 C         -12.3442    1.2054   -5.5860 C.ar    1  UNL1        0.0548
     20 C         -13.1396    1.3670   -6.8558 C.3     1  UNL1        0.4174
     21 F         -12.4079    0.8550   -7.9327 F       1  UNL1       -0.1659
     22 F         -14.3482    0.6719   -6.7406 F       1  UNL1       -0.1659
     23 F         -13.4010    2.7241   -7.0728 F       1  UNL1       -0.1659
     24 C         -12.4754    0.0557   -4.8298 C.ar    1  UNL1       -0.0499
     25 C         -11.7433   -0.0939   -3.6668 C.ar    1  UNL1       -0.0580
     26 C          -6.1602   -1.1052   -2.3439 C.3     1  UNL1        0.0164
     27 C          -4.7789   -0.4680   -2.5247 C.3     1  UNL1       -0.0148
     28 H           1.0039    1.9031    0.0027 H       1  UNL1        0.0233
     29 H          -0.5459    1.8868   -0.8726 H       1  UNL1        0.0233
     30 H          -0.5289    1.8773    0.9072 H       1  UNL1        0.0233
     31 H           0.5123   -0.3556   -0.8948 H       1  UNL1        0.0311
     32 H           0.2319   -0.1594    2.1383 H       1  UNL1        0.0233
     33 H           0.7568   -1.6008    1.2356 H       1  UNL1        0.0233
     34 H           1.7647   -0.1336    1.2338 H       1  UNL1        0.0233
     35 H          -1.4190   -1.6203    0.0965 H       1  UNL1        0.0502
     36 H          -1.9701   -0.1109    0.8621 H       1  UNL1        0.0502
     37 H          -3.8282   -1.8543   -1.1771 H       1  UNL1        0.0537
     38 H          -3.9388   -0.3709    0.8179 H       1  UNL1        0.0299
     39 H          -4.6765    0.9042   -0.1823 H       1  UNL1        0.0299
     40 H          -5.8295   -1.8672    0.3787 H       1  UNL1        0.0465
     41 H          -6.4529   -0.3114    0.9853 H       1  UNL1        0.0465
     42 H          -8.1935    0.7074   -3.0048 H       1  UNL1        0.0362
     43 H          -8.9259   -0.8947   -2.7498 H       1  UNL1        0.0362
     44 H         -10.6475    0.1253   -1.2855 H       1  UNL1        0.0318
     45 H          -9.9151    1.7274   -1.5404 H       1  UNL1        0.0318
     46 H         -10.0811    2.8410   -3.6937 H       1  UNL1        0.0620
     47 H         -11.3803    3.1048   -5.7687 H       1  UNL1        0.0623
     48 H         -13.1479   -0.7267   -5.1490 H       1  UNL1        0.0623
     49 H         -11.8458   -0.9922   -3.0760 H       1  UNL1        0.0620
     50 H          -6.0625   -2.1907   -2.3268 H       1  UNL1        0.0465
     51 H          -6.8104   -0.8078   -3.1667 H       1  UNL1        0.0465
     52 H          -4.8874    0.6113   -2.6325 H       1  UNL1        0.0299
     53 H          -4.3034   -0.8771   -3.4161 H       1  UNL1        0.0299
@<TRIPOS>BOND
     1     1     2    1
     2     1    28    1
     3     1    29    1
     4     1    30    1
     5     2     3    1
     6     2     4    1
     7     2    31    1
     8     3    32    1
     9     3    33    1
    10     3    34    1
    11     4     5    1
    12     4    35    1
    13     4    36    1
    14     5     6    2
    15     5     7    2
    16     5     8    1
    17     8    27    1
    18     8     9    1
    19     8    37    1
    20     9    10    1
    21     9    38    1
    22     9    39    1
    23    10    11    1
    24    10    40    1
    25    10    41    1
    26    11    12   am
    27    11    26    1
    28    12    13    2
    29    12    14    1
    30    14    15    1
    31    14    42    1
    32    14    43    1
    33    15    16    1
    34    15    44    1
    35    15    45    1
    36    16    25   ar
    37    16    17   ar
    38    17    18   ar
    39    17    46    1
    40    18    19   ar
    41    18    47    1
    42    19    20    1
    43    19    24   ar
    44    20    21    1
    45    20    22    1
    46    20    23    1
    47    24    25   ar
    48    24    48    1
    49    25    49    1
    50    26    27    1
    51    26    50    1
    52    26    51    1
    53    27    52    1
    54    27    53    1
