@<TRIPOS>MOLECULE
ZINC000408616976
 54 56 0 0 0
SMALL
GASTEIGER

@<TRIPOS>ATOM
      1 C          -0.0109    1.5660   -0.0186 C.3     1  UNL1       -0.0623
      2 C           0.0024    0.0360   -0.0200 C.3     1  UNL1       -0.0415
      3 C           0.7181   -0.4665   -1.2758 C.3     1  UNL1       -0.0359
      4 C           0.6991   -1.9982   -1.2911 C.3     1  UNL1        0.0207
      5 N           1.2731   -2.4909   -0.0316 N.3     1  UNL1       -0.1766
      6 S           2.5222   -3.5781   -0.0418 S.O2    1  UNL1        0.0609
      7 O           2.4766   -4.2534    1.2076 O.2     1  UNL1       -0.1528
      8 O           2.4583   -4.2509   -1.2917 O.2     1  UNL1       -0.1528
      9 C           4.0205   -2.6509   -0.0519 C.ar    1  UNL1        0.1057
     10 C           4.5955   -2.2816   -1.2538 C.ar    1  UNL1       -0.0319
     11 C           5.7702   -1.5547   -1.2644 C.ar    1  UNL1       -0.0181
     12 C           6.3726   -1.1948   -0.0677 C.ar    1  UNL1        0.1213
     13 O           7.5280   -0.4793   -0.0755 O.3     1  UNL1       -0.4828
     14 C           8.0920   -0.1440    1.1940 C.3     1  UNL1        0.1655
     15 C           9.3602    0.6436    0.9880 C.2     1  UNL1        0.2548
     16 O           9.7434    0.8931   -0.1354 O.2     1  UNL1       -0.2717
     17 N          10.0687    1.0706    2.0520 N.am    1  UNL1       -0.2827
     18 C          11.2951    1.7170    1.8623 C.ar    1  UNL1        0.0335
     19 C          12.3312    1.5228    2.7663 C.ar    1  UNL1       -0.0399
     20 C          13.5405    2.1623    2.5762 C.ar    1  UNL1       -0.0484
     21 C          13.7200    2.9956    1.4874 C.ar    1  UNL1        0.0549
     22 C          15.0406    3.6923    1.2833 C.3     1  UNL1        0.4174
     23 F          15.8790    2.8844    0.5077 F       1  UNL1       -0.1659
     24 F          14.8292    4.9099    0.6276 F       1  UNL1       -0.1659
     25 F          15.6396    3.9292    2.5252 F       1  UNL1       -0.1659
     26 C          12.6903    3.1908    0.5852 C.ar    1  UNL1       -0.0484
     27 C          11.4805    2.5497    0.7665 C.ar    1  UNL1       -0.0399
     28 C           5.7934   -1.5661    1.1370 C.ar    1  UNL1       -0.0181
     29 C           4.6162   -2.2889    1.1422 C.ar    1  UNL1       -0.0319
     30 C           0.7180   -2.0003    1.2373 C.3     1  UNL1        0.0207
     31 C           0.7368   -0.4686    1.2243 C.3     1  UNL1       -0.0359
     32 H           1.0136    1.9382   -0.0253 H       1  UNL1        0.0232
     33 H          -0.5339    1.9256   -0.9047 H       1  UNL1        0.0232
     34 H          -0.5217    1.9241    0.8752 H       1  UNL1        0.0232
     35 H          -1.0222   -0.3360   -0.0127 H       1  UNL1        0.0299
     36 H           0.2082   -0.0875   -2.1615 H       1  UNL1        0.0281
     37 H           1.7501   -0.1155   -1.2715 H       1  UNL1        0.0281
     38 H          -0.3281   -2.3500   -1.3869 H       1  UNL1        0.0444
     39 H           1.2920   -2.3627   -2.1301 H       1  UNL1        0.0444
     40 H           4.1261   -2.5621   -2.1852 H       1  UNL1        0.0638
     41 H           6.2193   -1.2671   -2.2036 H       1  UNL1        0.0655
     42 H           7.3800    0.4557    1.7609 H       1  UNL1        0.0795
     43 H           8.3170   -1.0575    1.7443 H       1  UNL1        0.0795
     44 H           9.7284    0.9298    2.9494 H       1  UNL1        0.1549
     45 H          12.1914    0.8726    3.6173 H       1  UNL1        0.0636
     46 H          14.3467    2.0117    3.2789 H       1  UNL1        0.0624
     47 H          12.8336    3.8422   -0.2642 H       1  UNL1        0.0624
     48 H          10.6768    2.7025    0.0615 H       1  UNL1        0.0636
     49 H           6.2607   -1.2874    2.0699 H       1  UNL1        0.0655
     50 H           4.1647   -2.5779    2.0798 H       1  UNL1        0.0638
     51 H          -0.3077   -2.3522    1.3478 H       1  UNL1        0.0444
     52 H           1.3233   -2.3662    2.0667 H       1  UNL1        0.0444
     53 H           1.7686   -0.1176    1.2051 H       1  UNL1        0.0281
     54 H           0.2401   -0.0910    2.1181 H       1  UNL1        0.0281
@<TRIPOS>BOND
     1     1     2    1
     2     1    32    1
     3     1    33    1
     4     1    34    1
     5     2    31    1
     6     2     3    1
     7     2    35    1
     8     3     4    1
     9     3    36    1
    10     3    37    1
    11     4     5    1
    12     4    38    1
    13     4    39    1
    14     6     5    1
    15     5    30    1
    16     6     7    2
    17     6     8    2
    18     6     9    1
    19     9    29   ar
    20     9    10   ar
    21    10    11   ar
    22    10    40    1
    23    11    12   ar
    24    11    41    1
    25    12    13    1
    26    12    28   ar
    27    13    14    1
    28    14    15    1
    29    14    42    1
    30    14    43    1
    31    15    16    2
    32    15    17   am
    33    17    18    1
    34    17    44    1
    35    18    27   ar
    36    18    19   ar
    37    19    20   ar
    38    19    45    1
    39    20    21   ar
    40    20    46    1
    41    21    22    1
    42    21    26   ar
    43    22    23    1
    44    22    24    1
    45    22    25    1
    46    26    27   ar
    47    26    47    1
    48    27    48    1
    49    28    29   ar
    50    28    49    1
    51    29    50    1
    52    30    31    1
    53    30    51    1
    54    30    52    1
    55    31    53    1
    56    31    54    1
