@<TRIPOS>MOLECULE
ZINC000077200743
 51 52 0 0 0
SMALL
GASTEIGER

@<TRIPOS>ATOM
      1 C          -0.0187    1.5258    0.0104 C.3     1  UNL1       -0.0218
      2 C           0.0021   -0.0041    0.0020 C.3     1  UNL1       -0.0266
      3 C           0.7182   -0.4975   -1.2568 C.3     1  UNL1       -0.0218
      4 N           0.7126   -0.4907    1.1921 N.4     1  UNL1        0.2370
      5 H           1.6590   -0.1409    1.1840 H       1  UNL1        0.2036
      6 C           0.7348   -1.9583    1.1809 C.3     1  UNL1       -0.0314
      7 C           1.5433   -2.4691    2.3754 C.3     1  UNL1       -0.0083
      8 C           0.8943   -1.9768    3.6722 C.3     1  UNL1       -0.0173
      9 C           1.7416   -2.4170    4.8676 C.3     1  UNL1        0.0203
     10 N           1.0597   -2.0499    6.1112 N.3     1  UNL1       -0.1939
     11 S           1.5428   -2.7161    7.5482 S.O2    1  UNL1        0.0335
     12 O           0.6565   -2.1582    8.5086 O.2     1  UNL1       -0.1579
     13 O           1.5643   -4.1145    7.2965 O.2     1  UNL1       -0.1579
     14 C           3.2265   -2.0878    7.7951 C.3     1  UNL1        0.1067
     15 C           3.7809   -2.6309    9.0869 C.ar    1  UNL1       -0.0250
     16 C           3.5910   -1.9362   10.2668 C.ar    1  UNL1       -0.0564
     17 C           4.0996   -2.4344   11.4518 C.ar    1  UNL1       -0.0498
     18 C           4.7976   -3.6275   11.4568 C.ar    1  UNL1        0.0548
     19 C           5.3525   -4.1704   12.7485 C.3     1  UNL1        0.4174
     20 F           4.3995   -4.9956   13.3552 F       1  UNL1       -0.1659
     21 F           6.5098   -4.9107   12.4843 F       1  UNL1       -0.1659
     22 F           5.6633   -3.1089   13.6052 F       1  UNL1       -0.1659
     23 C           4.9864   -4.3229   10.2771 C.ar    1  UNL1       -0.0498
     24 C           4.4745   -3.8267    9.0928 C.ar    1  UNL1       -0.0564
     25 C           0.8088   -0.4481    3.6403 C.3     1  UNL1       -0.0083
     26 C           0.0265   -0.0136    2.3989 C.3     1  UNL1       -0.0314
     27 H           1.0039    1.9031    0.0027 H       1  UNL1        0.0284
     28 H          -0.5459    1.8868   -0.8726 H       1  UNL1        0.0284
     29 H          -0.5289    1.8773    0.9072 H       1  UNL1        0.0284
     30 H          -1.0205   -0.3814    0.0098 H       1  UNL1        0.0846
     31 H           1.7408   -0.1202   -1.2645 H       1  UNL1        0.0284
     32 H           0.7330   -1.5874   -1.2628 H       1  UNL1        0.0284
     33 H           0.1910   -0.1364   -2.1398 H       1  UNL1        0.0284
     34 H          -0.2853   -2.3372    1.2444 H       1  UNL1        0.0814
     35 H           1.1940   -2.3072    0.2560 H       1  UNL1        0.0814
     36 H           1.5571   -3.5590    2.3663 H       1  UNL1        0.0320
     37 H           2.5637   -2.0910    2.3127 H       1  UNL1        0.0320
     38 H          -0.1075   -2.3972    3.7609 H       1  UNL1        0.0317
     39 H           1.8817   -3.4975    4.8354 H       1  UNL1        0.0444
     40 H           2.7125   -1.9233    4.8262 H       1  UNL1        0.0444
     41 H           0.3253   -1.4165    6.0928 H       1  UNL1        0.1476
     42 H           3.8584   -2.4063    6.9661 H       1  UNL1        0.0565
     43 H           3.2052   -0.9988    7.8382 H       1  UNL1        0.0565
     44 H           3.0456   -1.0040   10.2629 H       1  UNL1        0.0621
     45 H           3.9518   -1.8913   12.3735 H       1  UNL1        0.0623
     46 H           5.5314   -5.2553   10.2812 H       1  UNL1        0.0623
     47 H           4.6219   -4.3700    8.1711 H       1  UNL1        0.0621
     48 H           0.2976   -0.0934    4.5352 H       1  UNL1        0.0320
     49 H           1.8140   -0.0281    3.6038 H       1  UNL1        0.0320
     50 H          -0.0369    1.0742    2.3723 H       1  UNL1        0.0814
     51 H          -0.9782   -0.4345    2.4374 H       1  UNL1        0.0814
@<TRIPOS>UNITY_ATOM_ATTR
4 1
charge 1
@<TRIPOS>BOND
     1     1     2    1
     2     1    27    1
     3     1    28    1
     4     1    29    1
     5     2     3    1
     6     2     4    1
     7     2    30    1
     8     3    31    1
     9     3    32    1
    10     3    33    1
    11     4     5    1
    12     4    26    1
    13     4     6    1
    14     6     7    1
    15     6    34    1
    16     6    35    1
    17     7     8    1
    18     7    36    1
    19     7    37    1
    20     8     9    1
    21     8    25    1
    22     8    38    1
    23     9    10    1
    24     9    39    1
    25     9    40    1
    26    11    10    1
    27    10    41    1
    28    11    12    2
    29    11    13    2
    30    11    14    1
    31    14    15    1
    32    14    42    1
    33    14    43    1
    34    15    24   ar
    35    15    16   ar
    36    16    17   ar
    37    16    44    1
    38    17    18   ar
    39    17    45    1
    40    18    19    1
    41    18    23   ar
    42    19    20    1
    43    19    21    1
    44    19    22    1
    45    23    24   ar
    46    23    46    1
    47    24    47    1
    48    25    26    1
    49    25    48    1
    50    25    49    1
    51    26    50    1
    52    26    51    1
