@<TRIPOS>MOLECULE
ZINC000028208431
 55 56 0 0 0
SMALL
GASTEIGER

@<TRIPOS>ATOM
      1 C          -0.0127    1.0858    0.0080 C.3     1  UNL1       -0.0466
      2 C          -0.7288    1.5792    1.2668 C.3     1  UNL1        0.0206
      3 H          -0.2017    1.2182    2.1499 H       1  UNL1        0.0495
      4 C          -0.7496    3.1091    1.2752 C.3     1  UNL1       -0.0308
      5 C          -1.3536    3.6037    2.5911 C.3     1  UNL1       -0.0260
      6 C          -1.3740    5.1105    2.5994 C.ar    1  UNL1       -0.0473
      7 C          -0.2961    5.8136    3.1040 C.ar    1  UNL1       -0.0586
      8 C          -0.3128    7.1959    3.1071 C.ar    1  UNL1       -0.0615
      9 C          -1.4118    7.8749    2.6153 C.ar    1  UNL1       -0.0617
     10 C          -2.4920    7.1718    2.1155 C.ar    1  UNL1       -0.0615
     11 C          -2.4730    5.7896    2.1075 C.ar    1  UNL1       -0.0586
     12 N          -2.1032    1.0722    1.2772 N.am    1  UNL1       -0.3127
     13 C          -2.3647   -0.1562    1.7664 C.2     1  UNL1        0.2135
     14 O          -1.4621   -0.8417    2.1980 O.2     1  UNL1       -0.2758
     15 C          -3.7785   -0.6778    1.7771 C.3     1  UNL1        0.0279
     16 C          -3.7987   -2.0841    2.3794 C.3     1  UNL1       -0.0194
     17 C          -5.2125   -2.6057    2.3901 C.ar    1  UNL1       -0.0468
     18 C          -6.0238   -2.3810    3.4865 C.ar    1  UNL1       -0.0567
     19 C          -7.3222   -2.8553    3.4943 C.ar    1  UNL1       -0.0351
     20 C          -7.8061   -3.5630    2.4099 C.ar    1  UNL1        0.1055
     21 S          -9.4591   -4.1728    2.4224 S.O2    1  UNL1        0.0604
     22 O         -10.1805   -3.3581    3.3362 O.2     1  UNL1       -0.1529
     23 O          -9.8365   -4.3370    1.0623 O.2     1  UNL1       -0.1529
     24 N          -9.4166   -5.6910    3.0824 N.3     1  UNL1       -0.1827
     25 C          -9.5723   -5.8657    4.5286 C.3     1  UNL1        0.0086
     26 C          -9.2231   -6.8595    2.2201 C.3     1  UNL1        0.0086
     27 C          -6.9929   -3.7926    1.3159 C.ar    1  UNL1       -0.0351
     28 C          -5.6962   -3.3138    1.3059 C.ar    1  UNL1       -0.0567
     29 H           0.0021   -0.0041    0.0020 H       1  UNL1        0.0247
     30 H           1.0099    1.4631    0.0003 H       1  UNL1        0.0247
     31 H          -0.5399    1.4469   -0.8751 H       1  UNL1        0.0247
     32 H           0.2682    3.4868    1.1780 H       1  UNL1        0.0286
     33 H          -1.3519    3.4689    0.4410 H       1  UNL1        0.0286
     34 H          -2.3714    3.2260    2.6883 H       1  UNL1        0.0314
     35 H          -0.7512    3.2439    3.4253 H       1  UNL1        0.0314
     36 H           0.5607    5.2830    3.4923 H       1  UNL1        0.0620
     37 H           0.5309    7.7452    3.4980 H       1  UNL1        0.0618
     38 H          -1.4268    8.9548    2.6219 H       1  UNL1        0.0618
     39 H          -3.3508    7.7023    1.7316 H       1  UNL1        0.0618
     40 H          -3.3171    5.2402    1.7174 H       1  UNL1        0.0620
     41 H          -2.8251    1.6204    0.9320 H       1  UNL1        0.1490
     42 H          -4.4050   -0.0170    2.3761 H       1  UNL1        0.0361
     43 H          -4.1601   -0.7140    0.7568 H       1  UNL1        0.0361
     44 H          -3.1721   -2.7450    1.7804 H       1  UNL1        0.0318
     45 H          -3.4170   -2.0479    3.3998 H       1  UNL1        0.0318
     46 H          -5.6445   -1.8316    4.3355 H       1  UNL1        0.0621
     47 H          -7.9574   -2.6762    4.3492 H       1  UNL1        0.0637
     48 H         -10.6285   -5.9894    4.7679 H       1  UNL1        0.0408
     49 H          -9.0211   -6.7497    4.8492 H       1  UNL1        0.0408
     50 H          -9.1832   -4.9879    5.0445 H       1  UNL1        0.0408
     51 H          -9.1273   -6.5346    1.1840 H       1  UNL1        0.0408
     52 H          -8.3179   -7.3870    2.5206 H       1  UNL1        0.0408
     53 H         -10.0803   -7.5262    2.3140 H       1  UNL1        0.0408
     54 H          -7.3708   -4.3458    0.4688 H       1  UNL1        0.0637
     55 H          -5.0609   -3.4932    0.4511 H       1  UNL1        0.0621
@<TRIPOS>BOND
     1     1     2    1
     2     1    29    1
     3     1    30    1
     4     1    31    1
     5     2     3    1
     6     2     4    1
     7     2    12    1
     8     4     5    1
     9     4    32    1
    10     4    33    1
    11     5     6    1
    12     5    34    1
    13     5    35    1
    14     6    11   ar
    15     6     7   ar
    16     7     8   ar
    17     7    36    1
    18     8     9   ar
    19     8    37    1
    20     9    10   ar
    21     9    38    1
    22    10    11   ar
    23    10    39    1
    24    11    40    1
    25    12    13   am
    26    12    41    1
    27    13    14    2
    28    13    15    1
    29    15    16    1
    30    15    42    1
    31    15    43    1
    32    16    17    1
    33    16    44    1
    34    16    45    1
    35    17    28   ar
    36    17    18   ar
    37    18    19   ar
    38    18    46    1
    39    19    20   ar
    40    19    47    1
    41    20    21    1
    42    20    27   ar
    43    21    22    2
    44    21    23    2
    45    21    24    1
    46    24    25    1
    47    24    26    1
    48    25    48    1
    49    25    49    1
    50    25    50    1
    51    26    51    1
    52    26    52    1
    53    26    53    1
    54    27    28   ar
    55    27    54    1
    56    28    55    1
