@<TRIPOS>MOLECULE
ZINC000045944492
 55 56 0 0 0
SMALL
GASTEIGER

@<TRIPOS>ATOM
      1 C          -0.0187    1.5258    0.0104 C.3     1  UNL1       -0.0613
      2 C           0.0021   -0.0041    0.0020 C.3     1  UNL1       -0.0305
      3 C           0.7074   -0.4901   -1.2379 C.ar    1  UNL1       -0.0475
      4 C          -0.0105   -0.7185   -2.3969 C.ar    1  UNL1       -0.0567
      5 C           0.6365   -1.1643   -3.5342 C.ar    1  UNL1       -0.0351
      6 C           2.0016   -1.3812   -3.5126 C.ar    1  UNL1        0.1055
      7 S           2.8262   -1.9500   -4.9622 S.O2    1  UNL1        0.0609
      8 O           4.0170   -2.5884   -4.5220 O.2     1  UNL1       -0.1528
      9 O           1.8423   -2.6013   -5.7541 O.2     1  UNL1       -0.1528
     10 N           3.3006   -0.6112   -5.8135 N.3     1  UNL1       -0.1739
     11 C           4.6143   -0.0125   -5.5646 C.3     1  UNL1        0.0439
     12 C           5.6247   -0.5620   -6.5736 C.3     1  UNL1        0.0617
     13 O           5.2606   -0.1410   -7.8898 O.3     1  UNL1       -0.3817
     14 C           6.1444   -0.6031   -8.9132 C.3     1  UNL1        0.0365
     15 C           2.4067   -0.0255   -6.8155 C.3     1  UNL1        0.0288
     16 C           1.6048    1.1124   -6.1806 C.3     1  UNL1        0.0385
     17 C           0.6852    1.7149   -7.2113 C.2     1  UNL1        0.2169
     18 O           0.6724    1.2773   -8.3423 O.2     1  UNL1       -0.2756
     19 N          -0.1230    2.7401   -6.8762 N.am    1  UNL1       -0.2990
     20 C          -0.1189    3.2899   -5.5121 C.3     1  UNL1        0.0272
     21 C          -1.5635    3.3408   -5.0034 C.3     1  UNL1        0.0118
     22 N          -2.3929    4.0765   -5.9671 N.3     1  UNL1       -0.3130
     23 C          -2.4412    3.3877   -7.2637 C.3     1  UNL1        0.0118
     24 C          -1.0281    3.3427   -7.8666 C.3     1  UNL1        0.0272
     25 C           2.7197   -1.1515   -2.3540 C.ar    1  UNL1       -0.0351
     26 C           2.0733   -0.7021   -1.2178 C.ar    1  UNL1       -0.0567
     27 H           1.0039    1.9031    0.0027 H       1  UNL1        0.0233
     28 H          -0.5459    1.8868   -0.8726 H       1  UNL1        0.0233
     29 H          -0.5289    1.8773    0.9072 H       1  UNL1        0.0233
     30 H           0.5293   -0.3651    0.8851 H       1  UNL1        0.0311
     31 H          -1.0205   -0.3814    0.0098 H       1  UNL1        0.0311
     32 H          -1.0770   -0.5490   -2.4137 H       1  UNL1        0.0621
     33 H           0.0755   -1.3434   -4.4395 H       1  UNL1        0.0637
     34 H           4.5463    1.0702   -5.6714 H       1  UNL1        0.0466
     35 H           4.9400   -0.2581   -4.5538 H       1  UNL1        0.0466
     36 H           6.6191   -0.1856   -6.3339 H       1  UNL1        0.0573
     37 H           5.6278   -1.6511   -6.5283 H       1  UNL1        0.0573
     38 H           5.7995   -0.2413   -9.8818 H       1  UNL1        0.0523
     39 H           7.1496   -0.2275   -8.7219 H       1  UNL1        0.0523
     40 H           6.1583   -1.6930   -8.9164 H       1  UNL1        0.0523
     41 H           2.9965    0.3644   -7.6450 H       1  UNL1        0.0448
     42 H           1.7229   -0.7903   -7.1837 H       1  UNL1        0.0448
     43 H           1.0150    0.7225   -5.3510 H       1  UNL1        0.0371
     44 H           2.2886    1.8773   -5.8123 H       1  UNL1        0.0371
     45 H           0.4762    2.6496   -4.8610 H       1  UNL1        0.0477
     46 H           0.3008    4.2958   -5.5240 H       1  UNL1        0.0477
     47 H          -1.9465    2.3262   -4.8938 H       1  UNL1        0.0439
     48 H          -1.5917    3.8469   -4.0384 H       1  UNL1        0.0439
     49 H          -3.3218    4.2278   -5.6033 H       1  UNL1        0.1220
     50 H          -2.8119    2.3724   -7.1226 H       1  UNL1        0.0439
     51 H          -3.1059    3.9277   -7.9379 H       1  UNL1        0.0439
     52 H          -0.6991    4.3543   -8.1043 H       1  UNL1        0.0477
     53 H          -1.0352    2.7349   -8.7714 H       1  UNL1        0.0477
     54 H           3.7863   -1.3207   -2.3373 H       1  UNL1        0.0637
     55 H           2.6344   -0.5226   -0.3126 H       1  UNL1        0.0621
@<TRIPOS>BOND
     1     1     2    1
     2     1    27    1
     3     1    28    1
     4     1    29    1
     5     2     3    1
     6     2    30    1
     7     2    31    1
     8     3    26   ar
     9     3     4   ar
    10     4     5   ar
    11     4    32    1
    12     5     6   ar
    13     5    33    1
    14     6     7    1
    15     6    25   ar
    16     7     8    2
    17     7     9    2
    18     7    10    1
    19    10    11    1
    20    10    15    1
    21    11    12    1
    22    11    34    1
    23    11    35    1
    24    12    13    1
    25    12    36    1
    26    12    37    1
    27    13    14    1
    28    14    38    1
    29    14    39    1
    30    14    40    1
    31    15    16    1
    32    15    41    1
    33    15    42    1
    34    16    17    1
    35    16    43    1
    36    16    44    1
    37    17    18    2
    38    17    19   am
    39    19    24    1
    40    19    20    1
    41    20    21    1
    42    20    45    1
    43    20    46    1
    44    21    22    1
    45    21    47    1
    46    21    48    1
    47    22    23    1
    48    22    49    1
    49    23    24    1
    50    23    50    1
    51    23    51    1
    52    24    52    1
    53    24    53    1
    54    25    26   ar
    55    25    54    1
    56    26    55    1
