@<TRIPOS>MOLECULE
ZINC000028207359
 53 54 0 0 0
SMALL
GASTEIGER

@<TRIPOS>ATOM
      1 C          -0.0187    1.5258    0.0104 C.3     1  UNL1       -0.0466
      2 C           0.0021   -0.0041    0.0020 C.3     1  UNL1        0.0207
      3 H           0.5123   -0.3556   -0.8948 H       1  UNL1        0.0495
      4 C           0.7421   -0.5109    1.2415 C.3     1  UNL1       -0.0308
      5 C           0.8719   -2.0337    1.1708 C.3     1  UNL1       -0.0260
      6 C           1.6008   -2.5330    2.3917 C.ar    1  UNL1       -0.0473
      7 C           2.9789   -2.6409    2.3781 C.ar    1  UNL1       -0.0586
      8 C           3.6475   -3.0988    3.4980 C.ar    1  UNL1       -0.0615
      9 C           2.9380   -3.4484    4.6317 C.ar    1  UNL1       -0.0617
     10 C           1.5600   -3.3396    4.6457 C.ar    1  UNL1       -0.0615
     11 C           0.8918   -2.8776    3.5272 C.ar    1  UNL1       -0.0586
     12 N          -1.3723   -0.5112    0.0124 N.am    1  UNL1       -0.3099
     13 C          -2.0508   -0.6427   -1.1446 C.2     1  UNL1        0.2509
     14 O          -1.5236   -0.3413   -2.1944 O.2     1  UNL1       -0.2721
     15 C          -3.4646   -1.1643   -1.1339 C.3     1  UNL1        0.1651
     16 O          -3.9650   -1.2118   -2.4716 O.3     1  UNL1       -0.4828
     17 C          -5.2360   -1.6627   -2.6393 C.ar    1  UNL1        0.1213
     18 C          -5.9882   -2.0459   -1.5384 C.ar    1  UNL1       -0.0181
     19 C          -7.2802   -2.5034   -1.7115 C.ar    1  UNL1       -0.0319
     20 C          -7.8235   -2.5799   -2.9806 C.ar    1  UNL1        0.1057
     21 S          -9.4715   -3.1644   -3.1980 S.O2    1  UNL1        0.0604
     22 O          -9.5532   -3.6475   -4.5319 O.2     1  UNL1       -0.1529
     23 O          -9.7663   -3.9654   -2.0619 O.2     1  UNL1       -0.1529
     24 N         -10.4733   -1.8484   -3.1150 N.3     1  UNL1       -0.1827
     25 C         -10.8083   -1.1049   -4.3321 C.3     1  UNL1        0.0086
     26 C         -11.0246   -1.4277   -1.8245 C.3     1  UNL1        0.0086
     27 C          -7.0761   -2.1981   -4.0794 C.ar    1  UNL1       -0.0319
     28 C          -5.7855   -1.7350   -3.9111 C.ar    1  UNL1       -0.0181
     29 H           1.0039    1.9031    0.0027 H       1  UNL1        0.0247
     30 H          -0.5459    1.8868   -0.8726 H       1  UNL1        0.0247
     31 H          -0.5289    1.8773    0.9072 H       1  UNL1        0.0247
     32 H           1.7350   -0.0630    1.2804 H       1  UNL1        0.0286
     33 H           0.1838   -0.2350    2.1361 H       1  UNL1        0.0286
     34 H          -0.1210   -2.4817    1.1320 H       1  UNL1        0.0314
     35 H           1.4302   -2.3096    0.2763 H       1  UNL1        0.0314
     36 H           3.5331   -2.3677    1.4923 H       1  UNL1        0.0620
     37 H           4.7241   -3.1838    3.4870 H       1  UNL1        0.0618
     38 H           3.4603   -3.8068    5.5064 H       1  UNL1        0.0618
     39 H           1.0057   -3.6130    5.5313 H       1  UNL1        0.0618
     40 H          -0.1848   -2.7926    3.5382 H       1  UNL1        0.0620
     41 H          -1.7940   -0.7522    0.8520 H       1  UNL1        0.1491
     42 H          -3.4790   -2.1662   -0.7048 H       1  UNL1        0.0795
     43 H          -4.0912   -0.5035   -0.5349 H       1  UNL1        0.0795
     44 H          -5.5640   -1.9870   -0.5470 H       1  UNL1        0.0655
     45 H          -7.8662   -2.8019   -0.8548 H       1  UNL1        0.0638
     46 H         -11.7050   -1.5305   -4.7826 H       1  UNL1        0.0408
     47 H         -10.9888   -0.0597   -4.0812 H       1  UNL1        0.0408
     48 H          -9.9804   -1.1714   -5.0379 H       1  UNL1        0.0408
     49 H         -10.3477   -0.7134   -1.3558 H       1  UNL1        0.0408
     50 H         -11.9964   -0.9593   -1.9799 H       1  UNL1        0.0408
     51 H         -11.1398   -2.2975   -1.1777 H       1  UNL1        0.0408
     52 H          -7.5029   -2.2585   -5.0696 H       1  UNL1        0.0638
     53 H          -5.2020   -1.4369   -4.7697 H       1  UNL1        0.0655
@<TRIPOS>BOND
     1     1     2    1
     2     1    29    1
     3     1    30    1
     4     1    31    1
     5     2     3    1
     6     2     4    1
     7     2    12    1
     8     4     5    1
     9     4    32    1
    10     4    33    1
    11     5     6    1
    12     5    34    1
    13     5    35    1
    14     6    11   ar
    15     6     7   ar
    16     7     8   ar
    17     7    36    1
    18     8     9   ar
    19     8    37    1
    20     9    10   ar
    21     9    38    1
    22    10    11   ar
    23    10    39    1
    24    11    40    1
    25    12    13   am
    26    12    41    1
    27    13    14    2
    28    13    15    1
    29    15    16    1
    30    15    42    1
    31    15    43    1
    32    16    17    1
    33    17    28   ar
    34    17    18   ar
    35    18    19   ar
    36    18    44    1
    37    19    20   ar
    38    19    45    1
    39    20    21    1
    40    20    27   ar
    41    21    22    2
    42    21    23    2
    43    21    24    1
    44    24    25    1
    45    24    26    1
    46    25    46    1
    47    25    47    1
    48    25    48    1
    49    26    49    1
    50    26    50    1
    51    26    51    1
    52    27    28   ar
    53    27    52    1
    54    28    53    1
