@<TRIPOS>MOLECULE
ZINC000009227410
 52 53 0 0 0
SMALL
GASTEIGER

@<TRIPOS>ATOM
      1 C          -0.0187    1.5258    0.0104 C.3     1  UNL1       -0.0507
      2 C           0.0021   -0.0041    0.0020 C.3     1  UNL1        0.0182
      3 N           0.6878   -0.4765   -1.2033 N.3     1  UNL1       -0.1681
      4 C           2.1478   -0.5966   -1.2159 C.3     1  UNL1        0.0968
      5 C           2.5471   -1.9310   -0.6407 C.2     1  UNL1        0.2290
      6 O           1.6959   -2.7055   -0.2578 O.2     1  UNL1       -0.2743
      7 N           3.8501   -2.2637   -0.5516 N.am    1  UNL1       -0.3116
      8 C           4.2383   -3.5610    0.0076 C.3     1  UNL1        0.0206
      9 H           3.5479   -3.8338    0.8058 H       1  UNL1        0.0495
     10 C           4.1930   -4.6243   -1.0915 C.3     1  UNL1       -0.0466
     11 C           5.6580   -3.4694    0.5705 C.3     1  UNL1       -0.0308
     12 C           5.6766   -2.4974    1.7519 C.3     1  UNL1       -0.0260
     13 C           7.0750   -2.4073    2.3063 C.ar    1  UNL1       -0.0473
     14 C           7.4801   -3.2738    3.3042 C.ar    1  UNL1       -0.0586
     15 C           8.7629   -3.1911    3.8128 C.ar    1  UNL1       -0.0615
     16 C           9.6407   -2.2422    3.3230 C.ar    1  UNL1       -0.0617
     17 C           9.2359   -1.3763    2.3244 C.ar    1  UNL1       -0.0615
     18 C           7.9545   -1.4618    1.8129 C.ar    1  UNL1       -0.0586
     19 S          -0.1875   -0.8749   -2.5515 S.O2    1  UNL1        0.0613
     20 O           0.6166   -1.7761   -3.3001 O.2     1  UNL1       -0.1528
     21 O          -1.4970   -1.1925   -2.1004 O.2     1  UNL1       -0.1528
     22 C          -0.3375    0.5853   -3.5262 C.ar    1  UNL1        0.1055
     23 C          -1.4057    1.4405   -3.3300 C.ar    1  UNL1       -0.0353
     24 C          -1.5234    2.5861   -4.0947 C.ar    1  UNL1       -0.0599
     25 C          -0.5727    2.8767   -5.0552 C.ar    1  UNL1       -0.0616
     26 C           0.4960    2.0219   -5.2507 C.ar    1  UNL1       -0.0599
     27 C           0.6160    0.8786   -4.4831 C.ar    1  UNL1       -0.0353
     28 H           1.0039    1.9031    0.0027 H       1  UNL1        0.0243
     29 H          -0.5459    1.8868   -0.8726 H       1  UNL1        0.0243
     30 H          -0.5289    1.8773    0.9072 H       1  UNL1        0.0243
     31 H           0.5293   -0.3651    0.8851 H       1  UNL1        0.0441
     32 H          -1.0205   -0.3814    0.0098 H       1  UNL1        0.0441
     33 H           2.5098   -0.5199   -2.2412 H       1  UNL1        0.0539
     34 H           2.5833    0.2026   -0.6162 H       1  UNL1        0.0539
     35 H           4.5309   -1.6443   -0.8578 H       1  UNL1        0.1490
     36 H           3.1815   -4.6895   -1.4925 H       1  UNL1        0.0247
     37 H           4.8833   -4.3515   -1.8897 H       1  UNL1        0.0247
     38 H           4.4818   -5.5895   -0.6754 H       1  UNL1        0.0247
     39 H           5.9801   -4.4552    0.9059 H       1  UNL1        0.0286
     40 H           6.3342   -3.1109   -0.2057 H       1  UNL1        0.0286
     41 H           5.3545   -1.5116    1.4164 H       1  UNL1        0.0314
     42 H           5.0005   -2.8560    2.5280 H       1  UNL1        0.0314
     43 H           6.7943   -4.0152    3.6869 H       1  UNL1        0.0620
     44 H           9.0791   -3.8677    4.5929 H       1  UNL1        0.0618
     45 H          10.6426   -2.1771    3.7208 H       1  UNL1        0.0618
     46 H           9.9216   -0.6347    1.9420 H       1  UNL1        0.0618
     47 H           7.6383   -0.7852    1.0327 H       1  UNL1        0.0620
     48 H          -2.1485    1.2135   -2.5796 H       1  UNL1        0.0637
     49 H          -2.3583    3.2539   -3.9419 H       1  UNL1        0.0618
     50 H          -0.6651    3.7713   -5.6531 H       1  UNL1        0.0618
     51 H           1.2386    2.2488   -6.0014 H       1  UNL1        0.0618
     52 H           1.4509    0.2108   -4.6359 H       1  UNL1        0.0637
@<TRIPOS>BOND
     1     1     2    1
     2     1    28    1
     3     1    29    1
     4     1    30    1
     5     2     3    1
     6     2    31    1
     7     2    32    1
     8     3     4    1
     9    19     3    1
    10     4     5    1
    11     4    33    1
    12     4    34    1
    13     5     6    2
    14     5     7   am
    15     7     8    1
    16     7    35    1
    17     8     9    1
    18     8    10    1
    19     8    11    1
    20    10    36    1
    21    10    37    1
    22    10    38    1
    23    11    12    1
    24    11    39    1
    25    11    40    1
    26    12    13    1
    27    12    41    1
    28    12    42    1
    29    13    18   ar
    30    13    14   ar
    31    14    15   ar
    32    14    43    1
    33    15    16   ar
    34    15    44    1
    35    16    17   ar
    36    16    45    1
    37    17    18   ar
    38    17    46    1
    39    18    47    1
    40    19    20    2
    41    19    21    2
    42    19    22    1
    43    22    27   ar
    44    22    23   ar
    45    23    24   ar
    46    23    48    1
    47    24    25   ar
    48    24    49    1
    49    25    26   ar
    50    25    50    1
    51    26    27   ar
    52    26    51    1
    53    27    52    1
