@<TRIPOS>MOLECULE
ZINC000408607914
 52 52 0 0 0
SMALL
GASTEIGER

@<TRIPOS>ATOM
      1 C          -0.0187    1.5258    0.0104 C.3     1  UNL1       -0.0652
      2 C           0.0021   -0.0041    0.0020 C.3     1  UNL1       -0.0542
      3 C          -1.4333   -0.5336    0.0129 C.3     1  UNL1       -0.0350
      4 C          -1.4126   -2.0635    0.0045 C.3     1  UNL1        0.0204
      5 H          -0.8102   -2.4233    0.8386 H       1  UNL1        0.0495
      6 C          -2.8413   -2.5937    0.1410 C.3     1  UNL1       -0.0466
      7 N          -0.8342   -2.5371   -1.2555 N.am    1  UNL1       -0.3099
      8 C          -0.2517   -3.7510   -1.3153 C.2     1  UNL1        0.2509
      9 O          -0.2062   -4.4512   -0.3261 O.2     1  UNL1       -0.2721
     10 C           0.3432   -4.2382   -2.6114 C.3     1  UNL1        0.1651
     11 O           0.8967   -5.5418   -2.4212 O.3     1  UNL1       -0.4828
     12 C           1.4768   -6.1293   -3.5006 C.ar    1  UNL1        0.1213
     13 C           1.5178   -5.4624   -4.7164 C.ar    1  UNL1       -0.0181
     14 C           2.1085   -6.0615   -5.8120 C.ar    1  UNL1       -0.0319
     15 C           2.6582   -7.3251   -5.6978 C.ar    1  UNL1        0.1057
     16 S           3.4104   -8.0868   -7.0973 S.O2    1  UNL1        0.0608
     17 O           3.3693   -9.4876   -6.8622 O.2     1  UNL1       -0.1528
     18 O           2.8371   -7.4740   -8.2441 O.2     1  UNL1       -0.1528
     19 N           5.0099   -7.6578   -7.0883 N.3     1  UNL1       -0.1771
     20 C           5.9875   -8.4901   -6.3828 C.3     1  UNL1        0.0177
     21 C           6.6317   -9.4668   -7.3687 C.3     1  UNL1       -0.0507
     22 C           5.4472   -6.4460   -7.7858 C.3     1  UNL1        0.0177
     23 C           5.5059   -5.2809   -6.7958 C.3     1  UNL1       -0.0507
     24 C           2.6191   -7.9917   -4.4871 C.ar    1  UNL1       -0.0319
     25 C           2.0342   -7.3947   -3.3871 C.ar    1  UNL1       -0.0181
     26 H           1.0039    1.9031    0.0027 H       1  UNL1        0.0230
     27 H          -0.5459    1.8868   -0.8726 H       1  UNL1        0.0230
     28 H          -0.5289    1.8773    0.9072 H       1  UNL1        0.0230
     29 H           0.5123   -0.3556   -0.8948 H       1  UNL1        0.0263
     30 H           0.5293   -0.3651    0.8851 H       1  UNL1        0.0263
     31 H          -1.9435   -0.1821    0.9097 H       1  UNL1        0.0283
     32 H          -1.9605   -0.1726   -0.8702 H       1  UNL1        0.0283
     33 H          -2.8265   -3.6836    0.1350 H       1  UNL1        0.0247
     34 H          -3.2715   -2.2413    1.0784 H       1  UNL1        0.0247
     35 H          -3.4436   -2.2339   -0.6932 H       1  UNL1        0.0247
     36 H          -0.8706   -1.9771   -2.0466 H       1  UNL1        0.1491
     37 H          -0.4340   -4.2812   -3.3744 H       1  UNL1        0.0795
     38 H           1.1286   -3.5531   -2.9309 H       1  UNL1        0.0795
     39 H           1.0879   -4.4757   -4.8063 H       1  UNL1        0.0655
     40 H           2.1406   -5.5427   -6.7587 H       1  UNL1        0.0638
     41 H           6.7575   -7.8546   -5.9454 H       1  UNL1        0.0441
     42 H           5.4860   -9.0492   -5.5929 H       1  UNL1        0.0441
     43 H           7.3591  -10.0860   -6.8439 H       1  UNL1        0.0243
     44 H           5.8618  -10.1023   -7.8061 H       1  UNL1        0.0243
     45 H           7.1333   -8.9077   -8.1587 H       1  UNL1        0.0243
     46 H           6.4365   -6.6098   -8.2132 H       1  UNL1        0.0441
     47 H           4.7416   -6.2107   -8.5825 H       1  UNL1        0.0441
     48 H           4.5167   -5.1171   -6.3684 H       1  UNL1        0.0243
     49 H           6.2115   -5.5162   -5.9991 H       1  UNL1        0.0243
     50 H           5.8313   -4.3792   -7.3148 H       1  UNL1        0.0243
     51 H           3.0495   -8.9784   -4.4003 H       1  UNL1        0.0638
     52 H           2.0039   -7.9158   -2.4417 H       1  UNL1        0.0655
@<TRIPOS>BOND
     1     1     2    1
     2     1    26    1
     3     1    27    1
     4     1    28    1
     5     2     3    1
     6     2    29    1
     7     2    30    1
     8     3     4    1
     9     3    31    1
    10     3    32    1
    11     4     5    1
    12     4     6    1
    13     4     7    1
    14     6    33    1
    15     6    34    1
    16     6    35    1
    17     7     8   am
    18     7    36    1
    19     8     9    2
    20     8    10    1
    21    10    11    1
    22    10    37    1
    23    10    38    1
    24    11    12    1
    25    12    25   ar
    26    12    13   ar
    27    13    14   ar
    28    13    39    1
    29    14    15   ar
    30    14    40    1
    31    15    16    1
    32    15    24   ar
    33    16    17    2
    34    16    18    2
    35    16    19    1
    36    19    20    1
    37    19    22    1
    38    20    21    1
    39    20    41    1
    40    20    42    1
    41    21    43    1
    42    21    44    1
    43    21    45    1
    44    22    23    1
    45    22    46    1
    46    22    47    1
    47    23    48    1
    48    23    49    1
    49    23    50    1
    50    24    25   ar
    51    24    51    1
    52    25    52    1
