@<TRIPOS>MOLECULE
ZINC000009090545
 64 65 0 0 0
SMALL
GASTEIGER

@<TRIPOS>ATOM
      1 C          -5.4206   -1.9799    1.1479 C.3     1  UNL1       -0.0507
      2 C          -4.0786   -2.6226    0.7918 C.3     1  UNL1        0.0177
      3 N          -3.0638   -2.2035    1.7617 N.3     1  UNL1       -0.1771
      4 C          -2.9157   -2.9280    3.0264 C.3     1  UNL1        0.0177
      5 C          -2.0043   -4.1389    2.8168 C.3     1  UNL1       -0.0507
      6 S          -2.0840   -0.9107    1.4285 S.O2    1  UNL1        0.0608
      7 O          -0.9127   -1.0817    2.2147 O.2     1  UNL1       -0.1528
      8 O          -2.0582   -0.7809    0.0136 O.2     1  UNL1       -0.1528
      9 C          -2.8917    0.5286    2.0455 C.ar    1  UNL1        0.1056
     10 C          -3.7616    1.2331    1.2336 C.ar    1  UNL1       -0.0336
     11 C          -4.3963    2.3617    1.7142 C.ar    1  UNL1       -0.0386
     12 C          -4.1604    2.7885    3.0145 C.ar    1  UNL1        0.0336
     13 N          -4.8022    3.9312    3.5046 N.am    1  UNL1       -0.2827
     14 C          -6.0482    4.2345    3.0898 C.2     1  UNL1        0.2548
     15 O          -6.6499    3.4687    2.3669 O.2     1  UNL1       -0.2717
     16 C          -6.6937    5.5251    3.5242 C.3     1  UNL1        0.1655
     17 O          -8.0027    5.6170    2.9585 O.3     1  UNL1       -0.4828
     18 C          -8.7258    6.7291    3.2539 C.ar    1  UNL1        0.1213
     19 C          -8.1844    7.7143    4.0667 C.ar    1  UNL1       -0.0181
     20 C          -8.9213    8.8440    4.3652 C.ar    1  UNL1       -0.0319
     21 C         -10.1977    8.9931    3.8548 C.ar    1  UNL1        0.1057
     22 S         -11.1352   10.4349    4.2378 S.O2    1  UNL1        0.0608
     23 O         -12.5015   10.0802    4.0748 O.2     1  UNL1       -0.1528
     24 O         -10.6049   10.9475    5.4524 O.2     1  UNL1       -0.1528
     25 N         -10.8019   11.5609    3.0701 N.3     1  UNL1       -0.1771
     26 C         -11.6172   11.6186    1.8543 C.3     1  UNL1        0.0177
     27 C         -12.7215   12.6629    2.0300 C.3     1  UNL1       -0.0507
     28 C          -9.6918   12.4991    3.2529 C.3     1  UNL1        0.0177
     29 C          -8.4409   11.9497    2.5641 C.3     1  UNL1       -0.0507
     30 C         -10.7394    8.0128    3.0441 C.ar    1  UNL1       -0.0319
     31 C         -10.0045    6.8836    2.7384 C.ar    1  UNL1       -0.0181
     32 C          -3.2866    2.0785    3.8275 C.ar    1  UNL1       -0.0386
     33 C          -2.6588    0.9480    3.3424 C.ar    1  UNL1       -0.0336
     34 H          -6.1756   -2.2918    0.4263 H       1  UNL1        0.0243
     35 H          -5.7208   -2.2953    2.1471 H       1  UNL1        0.0243
     36 H          -5.3214   -0.8947    1.1239 H       1  UNL1        0.0243
     37 H          -4.1777   -3.7079    0.8158 H       1  UNL1        0.0441
     38 H          -3.7784   -2.3072   -0.2074 H       1  UNL1        0.0441
     39 H          -2.4764   -2.2677    3.7741 H       1  UNL1        0.0441
     40 H          -3.8942   -3.2647    3.3689 H       1  UNL1        0.0441
     41 H          -2.4436   -4.7992    2.0690 H       1  UNL1        0.0243
     42 H          -1.0258   -3.8021    2.4742 H       1  UNL1        0.0243
     43 H          -1.8941   -4.6779    3.7577 H       1  UNL1        0.0243
     44 H          -3.9446    0.9007    0.2224 H       1  UNL1        0.0638
     45 H          -5.0750    2.9119    1.0794 H       1  UNL1        0.0637
     46 H          -4.3504    4.5051    4.1429 H       1  UNL1        0.1549
     47 H          -6.7654    5.5475    4.6116 H       1  UNL1        0.0795
     48 H          -6.0903    6.3661    3.1824 H       1  UNL1        0.0795
     49 H          -7.1877    7.5981    4.4662 H       1  UNL1        0.0655
     50 H          -8.5002    9.6113    4.9979 H       1  UNL1        0.0638
     51 H         -10.9882   11.8939    1.0078 H       1  UNL1        0.0441
     52 H         -12.0661   10.6424    1.6711 H       1  UNL1        0.0441
     53 H         -13.3282   12.7059    1.1254 H       1  UNL1        0.0243
     54 H         -13.3506   12.3876    2.8765 H       1  UNL1        0.0243
     55 H         -12.2727   13.6392    2.2131 H       1  UNL1        0.0243
     56 H          -9.9542   13.4622    2.8151 H       1  UNL1        0.0441
     57 H          -9.4944   12.6256    4.3174 H       1  UNL1        0.0441
     58 H          -8.1785   10.9866    3.0019 H       1  UNL1        0.0243
     59 H          -8.6383   11.8232    1.4996 H       1  UNL1        0.0243
     60 H          -7.6150   12.6478    2.7001 H       1  UNL1        0.0243
     61 H         -11.7364    8.1317    2.6464 H       1  UNL1        0.0638
     62 H         -10.4281    6.1182    2.1051 H       1  UNL1        0.0655
     63 H          -3.1011    2.4079    4.8391 H       1  UNL1        0.0637
     64 H          -1.9791    0.3954    3.9742 H       1  UNL1        0.0638
@<TRIPOS>BOND
     1     1     2    1
     2     1    34    1
     3     1    35    1
     4     1    36    1
     5     2     3    1
     6     2    37    1
     7     2    38    1
     8     3     4    1
     9     6     3    1
    10     4     5    1
    11     4    39    1
    12     4    40    1
    13     5    41    1
    14     5    42    1
    15     5    43    1
    16     6     7    2
    17     6     8    2
    18     6     9    1
    19     9    33   ar
    20     9    10   ar
    21    10    11   ar
    22    10    44    1
    23    11    12   ar
    24    11    45    1
    25    12    13    1
    26    12    32   ar
    27    13    14   am
    28    13    46    1
    29    14    15    2
    30    14    16    1
    31    16    17    1
    32    16    47    1
    33    16    48    1
    34    17    18    1
    35    18    31   ar
    36    18    19   ar
    37    19    20   ar
    38    19    49    1
    39    20    21   ar
    40    20    50    1
    41    21    22    1
    42    21    30   ar
    43    22    23    2
    44    22    24    2
    45    22    25    1
    46    25    26    1
    47    25    28    1
    48    26    27    1
    49    26    51    1
    50    26    52    1
    51    27    53    1
    52    27    54    1
    53    27    55    1
    54    28    29    1
    55    28    56    1
    56    28    57    1
    57    29    58    1
    58    29    59    1
    59    29    60    1
    60    30    31   ar
    61    30    61    1
    62    31    62    1
    63    32    33   ar
    64    32    63    1
    65    33    64    1
