@<TRIPOS>MOLECULE
ZINC000237536271
 39 40 0 0 0
SMALL
GASTEIGER

@<TRIPOS>ATOM
      1 C          -0.9014    1.5042    0.9282 C.3     1  UNL1       -0.0476
      2 C          -0.5920    0.0717    0.4889 C.3     1  UNL1        0.0341
      3 H          -1.4080   -0.5864    0.7874 H       1  UNL1        0.0479
      4 C          -0.4260    0.0260   -1.0333 C.3     1  UNL1        0.0073
      5 C           0.0194   -1.3771   -1.4520 C.3     1  UNL1       -0.0216
      6 H          -0.7215   -2.1062   -1.1240 H       1  UNL1        0.0851
      7 N           0.1478   -1.4338   -2.9143 N.4     1  UNL1        0.2208
      8 H           0.8333   -0.7586   -3.2181 H       1  UNL1        0.1997
      9 H           0.4414   -2.3588   -3.1904 H       1  UNL1        0.1997
     10 H          -0.7430   -1.2230   -3.3386 H       1  UNL1        0.1997
     11 C           1.3704   -1.6984   -0.8089 C.3     1  UNL1        0.0047
     12 C           1.2248   -1.6722    0.7159 C.3     1  UNL1        0.0259
     13 N           0.6579   -0.3772    1.1174 N.3     1  UNL1       -0.1734
     14 S           1.4167    0.5607    2.2519 S.O2    1  UNL1        0.0625
     15 O           0.3904    1.2375    2.9645 O.2     1  UNL1       -0.1528
     16 O           2.3806   -0.2722    2.8814 O.2     1  UNL1       -0.1528
     17 C           2.3205    1.7998    1.3844 C.ar    1  UNL1        0.1237
     18 C           1.9491    3.1267    1.4892 C.ar    1  UNL1       -0.0334
     19 C           2.6582    4.0992    0.8085 C.ar    1  UNL1       -0.0482
     20 C           3.7384    3.7447    0.0225 C.ar    1  UNL1        0.0563
     21 C           4.5107    4.8052   -0.7191 C.3     1  UNL1        0.4175
     22 F           5.5514    5.2753    0.0892 F       1  UNL1       -0.1659
     23 F           5.0418    4.2602   -1.8930 F       1  UNL1       -0.1659
     24 F           3.6560    5.8646   -1.0418 F       1  UNL1       -0.1659
     25 C           4.1108    2.4176   -0.0831 C.ar    1  UNL1       -0.0299
     26 C           3.4056    1.4450    0.6026 C.ar    1  UNL1        0.0678
     27 CL          3.8727   -0.2218    0.4705 Cl      1  UNL1       -0.0815
     28 H          -0.0082    2.1191    0.8178 H       1  UNL1        0.0245
     29 H          -1.7007    1.9099    0.3080 H       1  UNL1        0.0245
     30 H          -1.2157    1.5043    1.9719 H       1  UNL1        0.0245
     31 H          -1.3769    0.2633   -1.5103 H       1  UNL1        0.0335
     32 H           0.3264    0.7529   -1.3393 H       1  UNL1        0.0335
     33 H           1.6980   -2.6884   -1.1261 H       1  UNL1        0.0333
     34 H           2.1059   -0.9553   -1.1169 H       1  UNL1        0.0333
     35 H           0.5585   -2.4744    1.0331 H       1  UNL1        0.0446
     36 H           2.2030   -1.8023    1.1787 H       1  UNL1        0.0446
     37 H           1.1047    3.4042    2.1027 H       1  UNL1        0.0638
     38 H           2.3676    5.1361    0.8908 H       1  UNL1        0.0624
     39 H           4.9550    2.1408   -0.6973 H       1  UNL1        0.0638
@<TRIPOS>UNITY_ATOM_ATTR
7 1
charge 1
@<TRIPOS>BOND
     1     1     2    1
     2     1    28    1
     3     1    29    1
     4     1    30    1
     5     2     3    1
     6     2    13    1
     7     2     4    1
     8     4     5    1
     9     4    31    1
    10     4    32    1
    11     5     6    1
    12     5     7    1
    13     5    11    1
    14     7     8    1
    15     7     9    1
    16     7    10    1
    17    11    12    1
    18    11    33    1
    19    11    34    1
    20    12    13    1
    21    12    35    1
    22    12    36    1
    23    14    13    1
    24    14    15    2
    25    14    16    2
    26    14    17    1
    27    17    26   ar
    28    17    18   ar
    29    18    19   ar
    30    18    37    1
    31    19    20   ar
    32    19    38    1
    33    20    21    1
    34    20    25   ar
    35    21    22    1
    36    21    23    1
    37    21    24    1
    38    25    26   ar
    39    25    39    1
    40    26    27    1
