@<TRIPOS>MOLECULE
ZINC000244983726
 39 41 0 0 0
SMALL
GASTEIGER

@<TRIPOS>ATOM
      1 O           0.0021   -0.0041    0.0020 O.2     1  UNL1       -0.1528
      2 S          -0.0172    1.4168    0.0098 S.O2    1  UNL1        0.0609
      3 O           1.1617    2.2101    0.0028 O.2     1  UNL1       -0.1528
      4 C          -0.9567    1.9094   -1.3970 C.ar    1  UNL1        0.1055
      5 C          -1.8848    1.0442   -1.9458 C.ar    1  UNL1       -0.0348
      6 C          -2.6219    1.4307   -3.0496 C.ar    1  UNL1       -0.0483
      7 C          -2.4313    2.6825   -3.6042 C.ar    1  UNL1        0.0549
      8 C          -3.2345    3.1036   -4.8078 C.3     1  UNL1        0.4174
      9 F          -4.4138    3.7273   -4.3864 F       1  UNL1       -0.1659
     10 F          -2.4843    3.9973   -5.5796 F       1  UNL1       -0.1659
     11 F          -3.5510    1.9771   -5.5746 F       1  UNL1       -0.1659
     12 C          -1.5042    3.5481   -3.0546 C.ar    1  UNL1       -0.0483
     13 C          -0.7699    3.1631   -1.9485 C.ar    1  UNL1       -0.0348
     14 N          -0.8748    1.8654    1.3536 N.3     1  UNL1       -0.1764
     15 C          -0.6802    3.1905    1.9578 C.3     1  UNL1        0.0225
     16 C          -2.0421    3.8813    2.0802 C.3     1  UNL1       -0.0143
     17 C          -3.0026    2.9735    2.8519 C.3     1  UNL1        0.0746
     18 N          -4.2962    3.6449    2.9995 N.ar    1  UNL1       -0.1802
     19 N          -5.0396    4.0222    2.0203 N.ar    1  UNL1       -0.1603
     20 C          -6.1219    4.5870    2.5057 C.ar    1  UNL1        0.0693
     21 C          -5.9923    4.5310    3.8954 C.ar    1  UNL1        0.0693
     22 N          -4.8457    3.9325    4.1261 N.ar    1  UNL1       -0.1603
     23 C          -3.1933    1.6620    2.0865 C.3     1  UNL1       -0.0143
     24 C          -1.8490    0.9483    1.9606 C.3     1  UNL1        0.0225
     25 H          -2.0336    0.0662   -1.5125 H       1  UNL1        0.0637
     26 H          -3.3464    0.7545   -3.4788 H       1  UNL1        0.0624
     27 H          -1.3556    4.5263   -3.4877 H       1  UNL1        0.0624
     28 H          -0.0456    3.8394   -1.5191 H       1  UNL1        0.0637
     29 H          -0.2367    3.0793    2.9473 H       1  UNL1        0.0445
     30 H          -0.0232    3.7875    1.3255 H       1  UNL1        0.0445
     31 H          -1.9249    4.8244    2.6141 H       1  UNL1        0.0299
     32 H          -2.4433    4.0734    1.0852 H       1  UNL1        0.0299
     33 H          -2.5888    2.7615    3.8377 H       1  UNL1        0.0563
     34 H          -6.9433    5.0084    1.9453 H       1  UNL1        0.0864
     35 H          -6.6931    4.9000    4.6296 H       1  UNL1        0.0864
     36 H          -3.8956    1.0254    2.6248 H       1  UNL1        0.0299
     37 H          -3.5837    1.8749    1.0914 H       1  UNL1        0.0299
     38 H          -1.9618    0.0648    1.3323 H       1  UNL1        0.0445
     39 H          -1.4977    0.6536    2.9494 H       1  UNL1        0.0445
@<TRIPOS>BOND
     1     1     2    2
     2     2     3    2
     3     2     4    1
     4     2    14    1
     5     4    13   ar
     6     4     5   ar
     7     5     6   ar
     8     5    25    1
     9     6     7   ar
    10     6    26    1
    11     7     8    1
    12     7    12   ar
    13     8     9    1
    14     8    10    1
    15     8    11    1
    16    12    13   ar
    17    12    27    1
    18    13    28    1
    19    14    24    1
    20    14    15    1
    21    15    16    1
    22    15    29    1
    23    15    30    1
    24    16    17    1
    25    16    31    1
    26    16    32    1
    27    17    18    1
    28    17    23    1
    29    17    33    1
    30    18    22   ar
    31    18    19   ar
    32    19    20   ar
    33    20    21   ar
    34    20    34    1
    35    21    22   ar
    36    21    35    1
    37    23    24    1
    38    23    36    1
    39    23    37    1
    40    24    38    1
    41    24    39    1
