@<TRIPOS>MOLECULE
ZINC000006584916
 43 44 0 0 0
SMALL
GASTEIGER

@<TRIPOS>ATOM
      1 C          -0.0169    1.4874    0.0302 C.3     1  UNL1       -0.0507
      2 C          -0.0070   -0.0425    0.0175 C.3     1  UNL1        0.0177
      3 N          -1.3849   -0.5399    0.0217 N.3     1  UNL1       -0.1771
      4 C          -2.1190   -0.6741   -1.2390 C.3     1  UNL1        0.0177
      5 C          -1.7892   -2.0236   -1.8800 C.3     1  UNL1       -0.0507
      6 S          -2.1128   -0.9504    1.4514 S.O2    1  UNL1        0.0609
      7 O          -3.1455   -1.8706    1.1262 O.2     1  UNL1       -0.1528
      8 O          -1.0651   -1.2485    2.3639 O.2     1  UNL1       -0.1528
      9 C          -2.9103    0.4961    2.0648 C.ar    1  UNL1        0.1075
     10 C          -2.2232    1.3633    2.8936 C.ar    1  UNL1       -0.0318
     11 C          -2.8437    2.5002    3.3783 C.ar    1  UNL1       -0.0163
     12 C          -4.1572    2.7730    3.0337 C.ar    1  UNL1        0.1413
     13 O          -4.7684    3.8907    3.5091 O.3     1  UNL1       -0.4933
     14 C          -3.9962    4.7404    4.3598 C.3     1  UNL1        0.0789
     15 C          -4.8506    1.8993    2.1982 C.ar    1  UNL1        0.0778
     16 N          -6.1784    2.1697    1.8464 N.am    1  UNL1       -0.2759
     17 C          -6.6309    1.8417    0.6200 C.2     1  UNL1        0.2863
     18 O          -5.9110    1.2383   -0.1524 O.2     1  UNL1       -0.2664
     19 C          -7.9989    2.2143    0.2148 C.ar    1  UNL1        0.2217
     20 C          -8.6021    1.9504   -0.9850 C.ar    1  UNL1        0.0098
     21 C          -9.8887    2.5170   -0.8484 C.ar    1  UNL1        0.0708
     22 N          -9.9411    3.0372    0.3434 N.ar    1  UNL1       -0.0859
     23 O          -8.9091    2.8779    0.9524 O.2     1  UNL1       -0.3500
     24 C          -4.2196    0.7638    1.7115 C.ar    1  UNL1       -0.0105
     25 H           1.0083    1.8575    0.0272 H       1  UNL1        0.0243
     26 H          -0.5384    1.8547   -0.8536 H       1  UNL1        0.0243
     27 H          -0.5278    1.8400    0.9262 H       1  UNL1        0.0243
     28 H           0.5039   -0.3951   -0.8785 H       1  UNL1        0.0441
     29 H           0.5145   -0.4098    0.9014 H       1  UNL1        0.0441
     30 H          -3.1899   -0.6166   -1.0438 H       1  UNL1        0.0441
     31 H          -1.8293    0.1299   -1.9155 H       1  UNL1        0.0441
     32 H          -2.0789   -2.8277   -1.2035 H       1  UNL1        0.0243
     33 H          -2.3354   -2.1235   -2.8180 H       1  UNL1        0.0243
     34 H          -0.7184   -2.0811   -2.0752 H       1  UNL1        0.0243
     35 H          -1.1991    1.1521    3.1637 H       1  UNL1        0.0638
     36 H          -2.3041    3.1753    4.0259 H       1  UNL1        0.0655
     37 H          -3.1180    5.0941    3.8197 H       1  UNL1        0.0660
     38 H          -4.6014    5.5932    4.6676 H       1  UNL1        0.0660
     39 H          -3.6803    4.1821    5.2411 H       1  UNL1        0.0660
     40 H          -6.7728    2.5932    2.4854 H       1  UNL1        0.1553
     41 H          -8.1904    1.4305   -1.8374 H       1  UNL1        0.0673
     42 H         -10.6751    2.5188   -1.5886 H       1  UNL1        0.0864
     43 H          -4.7540    0.0846    1.0638 H       1  UNL1        0.0657
@<TRIPOS>BOND
     1     1     2    1
     2     1    25    1
     3     1    26    1
     4     1    27    1
     5     2     3    1
     6     2    28    1
     7     2    29    1
     8     3     4    1
     9     6     3    1
    10     4     5    1
    11     4    30    1
    12     4    31    1
    13     5    32    1
    14     5    33    1
    15     5    34    1
    16     6     7    2
    17     6     8    2
    18     6     9    1
    19     9    24   ar
    20     9    10   ar
    21    10    11   ar
    22    10    35    1
    23    11    12   ar
    24    11    36    1
    25    12    13    1
    26    12    15   ar
    27    13    14    1
    28    14    37    1
    29    14    38    1
    30    14    39    1
    31    15    16    1
    32    15    24   ar
    33    16    17   am
    34    16    40    1
    35    17    18    2
    36    17    19    1
    37    19    23   ar
    38    19    20   ar
    39    20    21   ar
    40    20    41    1
    41    21    22   ar
    42    21    42    1
    43    22    23   ar
    44    24    43    1
