@<TRIPOS>MOLECULE
ZINC000102470252
 61 63 0 0 0
SMALL
GASTEIGER

@<TRIPOS>ATOM
      1 C           0.3504    1.4947   -0.0026 C.3     1  UNL1       -0.0409
      2 C           0.0366   -0.0026    0.0202 C.3     1  UNL1        0.0846
      3 H           0.3879   -0.4333    0.9578 H       1  UNL1        0.0556
      4 C          -1.4519   -0.2058   -0.0994 C.2     1  UNL1        0.2325
      5 O          -1.9490   -0.4235   -1.1840 O.2     1  UNL1       -0.2739
      6 N          -2.2306   -0.1456    0.9990 N.am    1  UNL1       -0.2997
      7 C          -1.6340    0.0200    2.3314 C.3     1  UNL1        0.0173
      8 C          -2.2883    1.2228    3.0185 C.3     1  UNL1       -0.0278
      9 H          -2.0378    2.1333    2.4743 H       1  UNL1        0.0313
     10 C          -1.7766    1.3301    4.4564 C.3     1  UNL1       -0.0610
     11 C          -3.8071    1.0353    3.0288 C.3     1  UNL1       -0.0450
     12 C          -4.3234    0.9611    1.5901 C.3     1  UNL1       -0.0278
     13 H          -4.0538    1.8742    1.0593 H       1  UNL1        0.0313
     14 C          -5.8457    0.8075    1.6011 C.3     1  UNL1       -0.0610
     15 C          -3.6926   -0.2384    0.8862 C.3     1  UNL1        0.0173
     16 N           0.7127   -0.6618   -1.1052 N.3     1  UNL1       -0.2892
     17 C           0.3776   -2.0911   -1.1565 C.3     1  UNL1        0.0141
     18 C           0.9519   -2.7012   -2.4395 C.3     1  UNL1        0.0333
     19 N           2.3897   -2.3970   -2.4987 N.3     1  UNL1       -0.1741
     20 S           3.5018   -3.5952   -2.7629 S.O2    1  UNL1        0.0609
     21 O           4.7322   -3.1254   -2.2295 O.2     1  UNL1       -0.1528
     22 O           2.8891   -4.8093   -2.3509 O.2     1  UNL1       -0.1528
     23 C           3.7303   -3.7196   -4.5056 C.ar    1  UNL1        0.1055
     24 C           2.9334   -4.5707   -5.2482 C.ar    1  UNL1       -0.0348
     25 C           3.1127   -4.6684   -6.6154 C.ar    1  UNL1       -0.0483
     26 C           4.0885   -3.9145   -7.2401 C.ar    1  UNL1        0.0549
     27 C           4.2843   -4.0213   -8.7305 C.3     1  UNL1        0.4174
     28 F           3.4746   -3.0804   -9.3758 F       1  UNL1       -0.1659
     29 F           5.6254   -3.7752   -9.0435 F       1  UNL1       -0.1659
     30 F           3.9345   -5.3073   -9.1558 F       1  UNL1       -0.1659
     31 C           4.8845   -3.0623   -6.4977 C.ar    1  UNL1       -0.0483
     32 C           4.7027   -2.9619   -5.1311 C.ar    1  UNL1       -0.0348
     33 C           2.8134   -1.0003   -2.3174 C.3     1  UNL1        0.0333
     34 C           2.1659   -0.4571   -1.0391 C.3     1  UNL1        0.0141
     35 H           1.4148    1.6456    0.1771 H       1  UNL1        0.0249
     36 H           0.0842    1.9070   -0.9758 H       1  UNL1        0.0249
     37 H          -0.2243    1.9982    0.7748 H       1  UNL1        0.0249
     38 H          -1.8076   -0.8783    2.9238 H       1  UNL1        0.0467
     39 H          -0.5624    0.1938    2.2330 H       1  UNL1        0.0467
     40 H          -0.6945    1.4610    4.4482 H       1  UNL1        0.0233
     41 H          -2.2424    2.1860    4.9449 H       1  UNL1        0.0233
     42 H          -2.0283    0.4198    5.0006 H       1  UNL1        0.0233
     43 H          -4.0555    0.1117    3.5518 H       1  UNL1        0.0271
     44 H          -4.2736    1.8780    3.5391 H       1  UNL1        0.0271
     45 H          -6.2937    1.6645    2.1039 H       1  UNL1        0.0233
     46 H          -6.2129    0.7547    0.5762 H       1  UNL1        0.0233
     47 H          -6.1148   -0.1063    2.1309 H       1  UNL1        0.0233
     48 H          -3.9800   -0.2378   -0.1652 H       1  UNL1        0.0467
     49 H          -4.0320   -1.1598    1.3594 H       1  UNL1        0.0467
     50 H           0.8053   -2.5963   -0.2905 H       1  UNL1        0.0440
     51 H          -0.7057   -2.2112   -1.1499 H       1  UNL1        0.0440
     52 H           0.8064   -3.7814   -2.4284 H       1  UNL1        0.0456
     53 H           0.4505   -2.2703   -3.3062 H       1  UNL1        0.0456
     54 H           2.1710   -5.1597   -4.7601 H       1  UNL1        0.0637
     55 H           2.4905   -5.3339   -7.1954 H       1  UNL1        0.0624
     56 H           5.6467   -2.4731   -6.9859 H       1  UNL1        0.0624
     57 H           5.3246   -2.2961   -4.5511 H       1  UNL1        0.0637
     58 H           3.8986   -0.9559   -2.2254 H       1  UNL1        0.0456
     59 H           2.4910   -0.4059   -3.1723 H       1  UNL1        0.0456
     60 H           2.3794    0.6078   -0.9474 H       1  UNL1        0.0440
     61 H           2.5686   -0.9851   -0.1747 H       1  UNL1        0.0440
@<TRIPOS>BOND
     1     1     2    1
     2     1    35    1
     3     1    36    1
     4     1    37    1
     5     2     3    1
     6     2     4    1
     7     2    16    1
     8     4     5    2
     9     4     6   am
    10     6    15    1
    11     6     7    1
    12     7     8    1
    13     7    38    1
    14     7    39    1
    15     8     9    1
    16     8    10    1
    17     8    11    1
    18    10    40    1
    19    10    41    1
    20    10    42    1
    21    11    12    1
    22    11    43    1
    23    11    44    1
    24    12    13    1
    25    12    14    1
    26    12    15    1
    27    14    45    1
    28    14    46    1
    29    14    47    1
    30    15    48    1
    31    15    49    1
    32    16    34    1
    33    16    17    1
    34    17    18    1
    35    17    50    1
    36    17    51    1
    37    18    19    1
    38    18    52    1
    39    18    53    1
    40    20    19    1
    41    19    33    1
    42    20    21    2
    43    20    22    2
    44    20    23    1
    45    23    32   ar
    46    23    24   ar
    47    24    25   ar
    48    24    54    1
    49    25    26   ar
    50    25    55    1
    51    26    27    1
    52    26    31   ar
    53    27    28    1
    54    27    29    1
    55    27    30    1
    56    31    32   ar
    57    31    56    1
    58    32    57    1
    59    33    34    1
    60    33    58    1
    61    33    59    1
    62    34    60    1
    63    34    61    1
