@<TRIPOS>MOLECULE
ZINC000012982526
 48 50 0 0 0
SMALL
GASTEIGER

@<TRIPOS>ATOM
      1 C          -0.0197    1.4388   -0.0325 C.3     1  UNL1        0.0788
      2 O           0.0030    0.0100   -0.0400 O.3     1  UNL1       -0.4951
      3 C          -1.1978   -0.6261   -0.0234 C.ar    1  UNL1        0.1202
      4 C          -2.3738    0.1097   -0.0061 C.ar    1  UNL1       -0.0181
      5 C          -3.5932   -0.5393    0.0102 C.ar    1  UNL1       -0.0319
      6 C          -3.6422   -1.9211    0.0098 C.ar    1  UNL1        0.1057
      7 S          -5.1991   -2.7459    0.0313 S.O2    1  UNL1        0.0615
      8 O          -4.9610   -4.0385    0.5714 O.2     1  UNL1       -0.1528
      9 O          -6.1308   -1.8298    0.5898 O.2     1  UNL1       -0.1528
     10 N          -5.6547   -2.9742   -1.5443 N.3     1  UNL1       -0.1647
     11 C          -6.4464   -2.0311   -2.3550 C.3     1  UNL1        0.0214
     12 C          -6.0794   -2.3647   -3.8226 C.3     1  UNL1       -0.0366
     13 C          -5.9408   -3.9090   -3.7657 C.3     1  UNL1       -0.0260
     14 C          -5.3312   -4.1480   -2.3684 C.3     1  UNL1        0.1081
     15 H          -4.2504   -4.2632   -2.4502 H       1  UNL1        0.0576
     16 C          -5.9330   -5.3842   -1.7514 C.2     1  UNL1        0.2361
     17 O          -6.5584   -5.3020   -0.7154 O.2     1  UNL1       -0.2737
     18 N          -5.7761   -6.5812   -2.3507 N.am    1  UNL1       -0.2842
     19 C          -6.2506   -7.7420   -1.7299 C.ar    1  UNL1        0.0335
     20 C          -5.5504   -8.9345   -1.8563 C.ar    1  UNL1       -0.0399
     21 C          -6.0213  -10.0785   -1.2423 C.ar    1  UNL1       -0.0484
     22 C          -7.1890  -10.0374   -0.5027 C.ar    1  UNL1        0.0549
     23 C          -7.7003  -11.2877    0.1654 C.3     1  UNL1        0.4174
     24 F          -7.1631  -11.3809    1.4538 F       1  UNL1       -0.1659
     25 F          -9.0961  -11.2366    0.2447 F       1  UNL1       -0.1659
     26 F          -7.3163  -12.4062   -0.5820 F       1  UNL1       -0.1659
     27 C          -7.8884   -8.8514   -0.3746 C.ar    1  UNL1       -0.0484
     28 C          -7.4196   -7.7026   -0.9813 C.ar    1  UNL1       -0.0399
     29 C          -2.4716   -2.6568   -0.0078 C.ar    1  UNL1       -0.0319
     30 C          -1.2498   -2.0125   -0.0295 C.ar    1  UNL1       -0.0181
     31 H           1.0020    1.8185   -0.0474 H       1  UNL1        0.0660
     32 H          -0.5538    1.7984   -0.9120 H       1  UNL1        0.0660
     33 H          -0.5245    1.7895    0.8677 H       1  UNL1        0.0660
     34 H          -2.3360    1.1890   -0.0051 H       1  UNL1        0.0655
     35 H          -4.5089    0.0330    0.0237 H       1  UNL1        0.0638
     36 H          -7.5118   -2.1869   -2.1857 H       1  UNL1        0.0444
     37 H          -6.1702   -1.0034   -2.1191 H       1  UNL1        0.0444
     38 H          -6.8786   -2.0689   -4.5021 H       1  UNL1        0.0279
     39 H          -5.1358   -1.8979   -4.1051 H       1  UNL1        0.0279
     40 H          -6.9165   -4.3871   -3.8518 H       1  UNL1        0.0286
     41 H          -5.2659   -4.2645   -4.5443 H       1  UNL1        0.0286
     42 H          -5.3344   -6.6380   -3.2124 H       1  UNL1        0.1549
     43 H          -4.6387   -8.9675   -2.4343 H       1  UNL1        0.0636
     44 H          -5.4772  -11.0063   -1.3402 H       1  UNL1        0.0624
     45 H          -8.8000   -8.8225    0.2037 H       1  UNL1        0.0624
     46 H          -7.9663   -6.7766   -0.8809 H       1  UNL1        0.0636
     47 H          -2.5126   -3.7360   -0.0084 H       1  UNL1        0.0638
     48 H          -0.3358   -2.5875   -0.0433 H       1  UNL1        0.0655
@<TRIPOS>BOND
     1     1     2    1
     2     1    31    1
     3     1    32    1
     4     1    33    1
     5     2     3    1
     6     3    30   ar
     7     3     4   ar
     8     4     5   ar
     9     4    34    1
    10     5     6   ar
    11     5    35    1
    12     6     7    1
    13     6    29   ar
    14     7     8    2
    15     7     9    2
    16     7    10    1
    17    10    14    1
    18    10    11    1
    19    11    12    1
    20    11    36    1
    21    11    37    1
    22    12    13    1
    23    12    38    1
    24    12    39    1
    25    13    14    1
    26    13    40    1
    27    13    41    1
    28    14    15    1
    29    14    16    1
    30    16    17    2
    31    16    18   am
    32    18    19    1
    33    18    42    1
    34    19    28   ar
    35    19    20   ar
    36    20    21   ar
    37    20    43    1
    38    21    22   ar
    39    21    44    1
    40    22    23    1
    41    22    27   ar
    42    23    24    1
    43    23    25    1
    44    23    26    1
    45    27    28   ar
    46    27    45    1
    47    28    46    1
    48    29    30   ar
    49    29    47    1
    50    30    48    1
