@<TRIPOS>MOLECULE
ZINC000001098827
 43 44 0 0 0
SMALL
GASTEIGER

@<TRIPOS>ATOM
      1 C          -0.7936    0.9860    0.0412 C.3     1  UNL1       -0.0362
      2 C          -0.0341   -0.3302   -0.1375 C.3     1  UNL1        0.1191
      3 H           0.4081   -0.3621   -1.1333 H       1  UNL1        0.0612
      4 C          -0.9869   -1.4862    0.0264 C.2     1  UNL1        0.2392
      5 O          -0.7996   -2.3073    0.8992 O.2     1  UNL1       -0.2734
      6 N          -2.0470   -1.6076   -0.7969 N.am    1  UNL1       -0.2827
      7 C          -2.9823   -2.6279   -0.5879 C.ar    1  UNL1        0.0524
      8 C          -2.5844   -3.8307   -0.0205 C.ar    1  UNL1       -0.0274
      9 C          -3.5099   -4.8357    0.1850 C.ar    1  UNL1        0.0566
     10 C          -3.0783   -6.1415    0.8014 C.3     1  UNL1        0.4175
     11 F          -3.2015   -6.0636    2.1928 F       1  UNL1       -0.1659
     12 F          -3.8880   -7.1752    0.3187 F       1  UNL1       -0.1659
     13 F          -1.7448   -6.3978    0.4649 F       1  UNL1       -0.1659
     14 C          -4.8314   -4.6451   -0.1736 C.ar    1  UNL1       -0.0486
     15 C          -5.2319   -3.4484   -0.7395 C.ar    1  UNL1       -0.0411
     16 C          -4.3126   -2.4369   -0.9426 C.ar    1  UNL1        0.0621
     17 CL         -4.8157   -0.9347   -1.6525 Cl      1  UNL1       -0.0816
     18 N           1.0250   -0.4236    0.8703 N.pl3   1  UNL1       -0.1960
     19 C           0.7140   -0.2865    2.2250 C.ar    1  UNL1        0.0517
     20 C           0.7571   -1.3923    3.0646 C.ar    1  UNL1       -0.0391
     21 C           0.4494   -1.2531    4.4037 C.ar    1  UNL1       -0.0600
     22 C           0.0982   -0.0147    4.9090 C.ar    1  UNL1       -0.0616
     23 C           0.0543    1.0883    4.0760 C.ar    1  UNL1       -0.0600
     24 C           0.3664    0.9572    2.7371 C.ar    1  UNL1       -0.0391
     25 S           2.5910   -0.6918    0.4033 S.O2    1  UNL1        0.0432
     26 C           3.3136    0.9666    0.2688 C.3     1  UNL1        0.0738
     27 O           3.1656   -1.3991    1.4937 O.2     1  UNL1       -0.1552
     28 O           2.4763   -1.2913   -0.8799 O.2     1  UNL1       -0.1552
     29 H          -0.1022    1.8218   -0.0660 H       1  UNL1        0.0253
     30 H          -1.5742    1.0607   -0.7158 H       1  UNL1        0.0253
     31 H          -1.2453    1.0130    1.0328 H       1  UNL1        0.0253
     32 H          -2.1620   -0.9880   -1.5343 H       1  UNL1        0.1549
     33 H          -1.5523   -3.9809    0.2597 H       1  UNL1        0.0642
     34 H          -5.5526   -5.4326   -0.0117 H       1  UNL1        0.0623
     35 H          -6.2649   -3.3027   -1.0189 H       1  UNL1        0.0633
     36 H           1.0305   -2.3599    2.6705 H       1  UNL1        0.0636
     37 H           0.4827   -2.1125    5.0570 H       1  UNL1        0.0618
     38 H          -0.1426    0.0913    5.9564 H       1  UNL1        0.0618
     39 H          -0.2203    2.0540    4.4738 H       1  UNL1        0.0618
     40 H           0.3322    1.8191    2.0871 H       1  UNL1        0.0636
     41 H           3.1252    1.5207    1.1884 H       1  UNL1        0.0482
     42 H           4.3885    0.8827    0.1089 H       1  UNL1        0.0482
     43 H           2.8612    1.4930   -0.5716 H       1  UNL1        0.0482
@<TRIPOS>BOND
     1     1     2    1
     2     1    29    1
     3     1    30    1
     4     1    31    1
     5     2     3    1
     6     2     4    1
     7     2    18    1
     8     4     5    2
     9     4     6   am
    10     6     7    1
    11     6    32    1
    12     7    16   ar
    13     7     8   ar
    14     8     9   ar
    15     8    33    1
    16     9    10    1
    17     9    14   ar
    18    10    11    1
    19    10    12    1
    20    10    13    1
    21    14    15   ar
    22    14    34    1
    23    15    16   ar
    24    15    35    1
    25    16    17    1
    26    18    19    1
    27    25    18    1
    28    19    24   ar
    29    19    20   ar
    30    20    21   ar
    31    20    36    1
    32    21    22   ar
    33    21    37    1
    34    22    23   ar
    35    22    38    1
    36    23    24   ar
    37    23    39    1
    38    24    40    1
    39    25    26    1
    40    25    27    2
    41    25    28    2
    42    26    41    1
    43    26    42    1
    44    26    43    1
