@<TRIPOS>MOLECULE
ZINC000074841476
 41 42 0 0 0
SMALL
GASTEIGER

@<TRIPOS>ATOM
      1 C          -0.0187    1.5258    0.0104 C.3     1  UNL1       -0.0607
      2 C           0.0021   -0.0041    0.0020 C.3     1  UNL1       -0.0228
      3 C           0.7074   -0.4901   -1.2379 C.ar    1  UNL1        0.0092
      4 C           2.0155   -0.7388   -1.3518 C.ar    1  UNL1        0.0382
      5 N           2.3906   -1.1564   -2.5441 N.ar    1  UNL1       -0.2520
      6 C           1.4718   -1.2737   -3.4423 C.ar    1  UNL1        0.0800
      7 C           1.7035   -1.7345   -4.8582 C.3     1  UNL1        0.0117
      8 C           1.5583   -3.2559   -4.9297 C.3     1  UNL1        0.0190
      9 N           1.7835   -3.7039   -6.3062 N.am    1  UNL1       -0.2989
     10 C           1.7062   -5.0148   -6.6094 C.2     1  UNL1        0.3023
     11 O           1.4495   -5.8257   -5.7405 O.2     1  UNL1       -0.2526
     12 N           1.9135   -5.4269   -7.8758 N.am    1  UNL1       -0.2844
     13 C           2.2227   -4.4499   -8.9227 C.3     1  UNL1        0.0050
     14 C           1.8294   -6.8519   -8.2054 C.3     1  UNL1        0.0409
     15 C           0.4141   -7.1953   -8.5925 C.ar    1  UNL1       -0.0272
     16 C          -0.5050   -7.5999   -7.6365 C.ar    1  UNL1       -0.0389
     17 C          -1.7941   -7.9068   -8.0289 C.ar    1  UNL1        0.0279
     18 N          -2.1528   -7.8187   -9.2948 N.ar    1  UNL1       -0.2632
     19 C          -1.3057   -7.4376  -10.2307 C.ar    1  UNL1        0.0279
     20 C          -0.0016   -7.1087   -9.9124 C.ar    1  UNL1       -0.0389
     21 S          -0.0480   -0.8379   -2.7912 S.2     1  UNL1       -0.0770
     22 H           1.0039    1.9031    0.0027 H       1  UNL1        0.0233
     23 H          -0.5459    1.8868   -0.8726 H       1  UNL1        0.0233
     24 H          -0.5289    1.8773    0.9072 H       1  UNL1        0.0233
     25 H           0.5293   -0.3651    0.8851 H       1  UNL1        0.0316
     26 H          -1.0205   -0.3814    0.0098 H       1  UNL1        0.0316
     27 H           2.7085   -0.6084   -0.5337 H       1  UNL1        0.0838
     28 H           0.9705   -1.2683   -5.5166 H       1  UNL1        0.0349
     29 H           2.7075   -1.4501   -5.1732 H       1  UNL1        0.0349
     30 H           2.2913   -3.7222   -4.2713 H       1  UNL1        0.0466
     31 H           0.5543   -3.5403   -4.6147 H       1  UNL1        0.0466
     32 H           1.9883   -3.0570   -6.9994 H       1  UNL1        0.1502
     33 H           3.3023   -4.3126   -8.9841 H       1  UNL1        0.0429
     34 H           1.8475   -4.8120   -9.8799 H       1  UNL1        0.0429
     35 H           1.7485   -3.4982   -8.6831 H       1  UNL1        0.0429
     36 H           2.4975   -7.0722   -9.0380 H       1  UNL1        0.0514
     37 H           2.1225   -7.4434   -7.3380 H       1  UNL1        0.0514
     38 H          -0.2170   -7.6747   -6.5983 H       1  UNL1        0.0636
     39 H          -2.5159   -8.2227   -7.2903 H       1  UNL1        0.0829
     40 H          -1.6359   -7.3777  -11.2573 H       1  UNL1        0.0829
     41 H           0.6875   -6.7969  -10.6834 H       1  UNL1        0.0636
@<TRIPOS>BOND
     1     1     2    1
     2     1    22    1
     3     1    23    1
     4     1    24    1
     5     2     3    1
     6     2    25    1
     7     2    26    1
     8     3    21   ar
     9     3     4   ar
    10     4     5   ar
    11     4    27    1
    12     5     6   ar
    13     6     7    1
    14     6    21   ar
    15     7     8    1
    16     7    28    1
    17     7    29    1
    18     8     9    1
    19     8    30    1
    20     8    31    1
    21     9    10   am
    22     9    32    1
    23    10    11    2
    24    10    12   am
    25    12    13    1
    26    12    14    1
    27    13    33    1
    28    13    34    1
    29    13    35    1
    30    14    15    1
    31    14    36    1
    32    14    37    1
    33    15    20   ar
    34    15    16   ar
    35    16    17   ar
    36    16    38    1
    37    17    18   ar
    38    17    39    1
    39    18    19   ar
    40    19    20   ar
    41    19    40    1
    42    20    41    1
