@<TRIPOS>MOLECULE
ZINC000107540100
 40 41 0 0 0
SMALL
GASTEIGER

@<TRIPOS>ATOM
      1 C          -0.8673    0.7708    0.3578 C.3     1  UNL1       -0.0609
      2 C          -0.2462   -0.6273    0.3337 C.3     1  UNL1       -0.0244
      3 H          -1.0041   -1.3666    0.5927 H       1  UNL1        0.0314
      4 C           0.2963   -0.9211   -1.0669 C.3     1  UNL1       -0.0477
      5 C           1.3364    0.1360   -1.4450 C.3     1  UNL1       -0.0383
      6 C           2.5021    0.0775   -0.4528 C.3     1  UNL1        0.0209
      7 N           1.9705    0.2145    0.9100 N.3     1  UNL1       -0.1710
      8 S           2.5644    1.3716    1.9350 S.O2    1  UNL1        0.0639
      9 O           2.6137    0.7779    3.2250 O.2     1  UNL1       -0.1527
     10 O           3.7020    1.9309    1.2928 O.2     1  UNL1       -0.1527
     11 C           1.3617    2.6563    2.0242 C.ar    1  UNL1        0.1410
     12 C           0.7187    2.9193    3.2186 C.ar    1  UNL1       -0.0209
     13 C          -0.2251    3.9273    3.2890 C.ar    1  UNL1        0.0568
     14 C          -0.9257    4.2132    4.5922 C.3     1  UNL1        0.4175
     15 F          -0.1972    5.1645    5.3144 F       1  UNL1       -0.1659
     16 F          -2.2090    4.7065    4.3334 F       1  UNL1       -0.1659
     17 F          -1.0212    3.0339    5.3388 F       1  UNL1       -0.1659
     18 C          -0.5263    4.6732    2.1649 C.ar    1  UNL1       -0.0473
     19 C           0.1153    4.4116    0.9689 C.ar    1  UNL1       -0.0240
     20 C           1.0646    3.4064    0.8987 C.ar    1  UNL1        0.1496
     21 F           1.6924    3.1498   -0.2697 F       1  UNL1       -0.2034
     22 C           0.9011   -0.6947    1.3466 C.3     1  UNL1        0.0575
     23 H           1.2853   -1.7135    1.3963 H       1  UNL1        0.0505
     24 C           0.3973   -0.2685    2.7270 C.3     1  UNL1        0.0616
     25 O           1.2896   -0.7560    3.7311 O.3     1  UNL1       -0.3934
     26 H          -0.1090    1.5097    0.0987 H       1  UNL1        0.0233
     27 H          -1.6827    0.8186   -0.3638 H       1  UNL1        0.0233
     28 H          -1.2525    0.9800    1.3558 H       1  UNL1        0.0233
     29 H           0.7606   -1.9072   -1.0770 H       1  UNL1        0.0269
     30 H          -0.5227   -0.8982   -1.7858 H       1  UNL1        0.0269
     31 H           1.7053   -0.0603   -2.4517 H       1  UNL1        0.0278
     32 H           0.8790    1.1249   -1.4111 H       1  UNL1        0.0278
     33 H           3.0169   -0.8783   -0.5499 H       1  UNL1        0.0444
     34 H           3.1973    0.8918   -0.6574 H       1  UNL1        0.0444
     35 H           0.9532    2.3371    4.0975 H       1  UNL1        0.0643
     36 H          -1.2634    5.4605    2.2211 H       1  UNL1        0.0624
     37 H          -0.1206    4.9941    0.0906 H       1  UNL1        0.0647
     38 H           0.3528    0.8194    2.7776 H       1  UNL1        0.0573
     39 H          -0.5977   -0.6811    2.8939 H       1  UNL1        0.0573
     40 H           1.0317   -0.5226    4.6333 H       1  UNL1        0.2095
@<TRIPOS>BOND
     1     1     2    1
     2     1    26    1
     3     1    27    1
     4     1    28    1
     5     2     3    1
     6     2    22    1
     7     2     4    1
     8     4     5    1
     9     4    29    1
    10     4    30    1
    11     5     6    1
    12     5    31    1
    13     5    32    1
    14     6     7    1
    15     6    33    1
    16     6    34    1
    17     8     7    1
    18     7    22    1
    19     8     9    2
    20     8    10    2
    21     8    11    1
    22    11    20   ar
    23    11    12   ar
    24    12    13   ar
    25    12    35    1
    26    13    14    1
    27    13    18   ar
    28    14    15    1
    29    14    16    1
    30    14    17    1
    31    18    19   ar
    32    18    36    1
    33    19    20   ar
    34    19    37    1
    35    20    21    1
    36    22    23    1
    37    22    24    1
    38    24    25    1
    39    24    38    1
    40    24    39    1
    41    25    40    1
