@<TRIPOS>MOLECULE
ZINC000000663847
 51 53 0 0 0
SMALL
GASTEIGER

@<TRIPOS>ATOM
      1 C          -0.0155    1.4632   -0.0202 C.3     1  UNL1        0.0788
      2 O           0.0118    0.0345   -0.0251 O.3     1  UNL1       -0.4951
      3 C          -1.1870   -0.6055   -0.0104 C.ar    1  UNL1        0.1202
      4 C          -2.3654    0.1265    0.0026 C.ar    1  UNL1       -0.0181
      5 C          -3.5827   -0.5264    0.0172 C.ar    1  UNL1       -0.0319
      6 C          -3.6273   -1.9083    0.0192 C.ar    1  UNL1        0.1057
      7 S          -5.1816   -2.7381    0.0383 S.O2    1  UNL1        0.0609
      8 O          -4.9406   -4.0290    0.5813 O.2     1  UNL1       -0.1528
      9 O          -6.1176   -1.8240    0.5928 O.2     1  UNL1       -0.1528
     10 N          -5.6325   -2.9707   -1.5381 N.3     1  UNL1       -0.1765
     11 C          -6.4266   -1.9578   -2.2467 C.3     1  UNL1        0.0212
     12 C          -5.7077   -1.5898   -3.5485 C.3     1  UNL1       -0.0274
     13 C          -5.4442   -2.8615   -4.3582 C.3     1  UNL1        0.0383
     14 C          -4.7675   -2.4997   -5.6552 C.2     1  UNL1        0.2204
     15 O          -4.5203   -1.3393   -5.9071 O.2     1  UNL1       -0.2752
     16 N          -4.4370   -3.4656   -6.5351 N.am    1  UNL1       -0.2853
     17 C          -3.8973   -3.1231   -7.7798 C.ar    1  UNL1        0.0334
     18 C          -4.2098   -3.8755   -8.9045 C.ar    1  UNL1       -0.0399
     19 C          -3.6754   -3.5349  -10.1317 C.ar    1  UNL1       -0.0484
     20 C          -2.8297   -2.4463  -10.2411 C.ar    1  UNL1        0.0549
     21 C          -2.2480   -2.0778  -11.5816 C.3     1  UNL1        0.4174
     22 F          -3.1043   -1.1823  -12.2312 F       1  UNL1       -0.1659
     23 F          -0.9976   -1.4778  -11.3983 F       1  UNL1       -0.1659
     24 F          -2.1021   -3.2313  -12.3596 F       1  UNL1       -0.1659
     25 C          -2.5169   -1.6949   -9.1232 C.ar    1  UNL1       -0.0484
     26 C          -3.0526   -2.0268   -7.8942 C.ar    1  UNL1       -0.0399
     27 C          -4.5405   -3.8008   -3.5562 C.3     1  UNL1       -0.0274
     28 C          -5.2410   -4.1911   -2.2564 C.3     1  UNL1        0.0212
     29 C          -2.4543   -2.6402    0.0058 C.ar    1  UNL1       -0.0319
     30 C          -1.2345   -1.9921   -0.0141 C.ar    1  UNL1       -0.0181
     31 H           1.0050    1.8461   -0.0333 H       1  UNL1        0.0660
     32 H          -0.5486    1.8194   -0.9017 H       1  UNL1        0.0660
     33 H          -0.5236    1.8138    0.8781 H       1  UNL1        0.0660
     34 H          -2.3311    1.2060    0.0018 H       1  UNL1        0.0655
     35 H          -4.5003    0.0431    0.0273 H       1  UNL1        0.0638
     36 H          -7.4130   -2.3611   -2.4755 H       1  UNL1        0.0444
     37 H          -6.5283   -1.0704   -1.6220 H       1  UNL1        0.0444
     38 H          -6.3322   -0.9113   -4.1297 H       1  UNL1        0.0285
     39 H          -4.7602   -1.1037   -3.3160 H       1  UNL1        0.0285
     40 H          -6.3902   -3.3602   -4.5689 H       1  UNL1        0.0395
     41 H          -4.5733   -4.3981   -6.3055 H       1  UNL1        0.1548
     42 H          -4.8697   -4.7262   -8.8196 H       1  UNL1        0.0636
     43 H          -3.9180   -4.1196  -11.0067 H       1  UNL1        0.0624
     44 H          -1.8561   -0.8453   -9.2119 H       1  UNL1        0.0624
     45 H          -2.8079   -1.4396   -7.0214 H       1  UNL1        0.0636
     46 H          -4.3343   -4.6960   -4.1429 H       1  UNL1        0.0285
     47 H          -3.6040   -3.2939   -3.3236 H       1  UNL1        0.0285
     48 H          -4.5627   -4.7790   -1.6381 H       1  UNL1        0.0444
     49 H          -6.1321   -4.7764   -2.4831 H       1  UNL1        0.0444
     50 H          -2.4918   -3.7196    0.0070 H       1  UNL1        0.0638
     51 H          -0.3186   -2.5642   -0.0246 H       1  UNL1        0.0655
@<TRIPOS>BOND
     1     1     2    1
     2     1    31    1
     3     1    32    1
     4     1    33    1
     5     2     3    1
     6     3    30   ar
     7     3     4   ar
     8     4     5   ar
     9     4    34    1
    10     5     6   ar
    11     5    35    1
    12     6     7    1
    13     6    29   ar
    14     7     8    2
    15     7     9    2
    16     7    10    1
    17    10    28    1
    18    10    11    1
    19    11    12    1
    20    11    36    1
    21    11    37    1
    22    12    13    1
    23    12    38    1
    24    12    39    1
    25    13    14    1
    26    13    27    1
    27    13    40    1
    28    14    15    2
    29    14    16   am
    30    16    17    1
    31    16    41    1
    32    17    26   ar
    33    17    18   ar
    34    18    19   ar
    35    18    42    1
    36    19    20   ar
    37    19    43    1
    38    20    21    1
    39    20    25   ar
    40    21    22    1
    41    21    23    1
    42    21    24    1
    43    25    26   ar
    44    25    44    1
    45    26    45    1
    46    27    28    1
    47    27    46    1
    48    27    47    1
    49    28    48    1
    50    28    49    1
    51    29    30   ar
    52    29    50    1
    53    30    51    1
