@<TRIPOS>MOLECULE
ZINC000090608972
 46 47 0 0 0
SMALL
GASTEIGER

@<TRIPOS>ATOM
      1 C          -1.1128    1.4457    0.2033 C.3     1  UNL1       -0.0433
      2 N          -0.7677    0.0182    0.1681 N.4     1  UNL1        0.2321
      3 H          -0.1060   -0.1496   -0.5749 H       1  UNL1        0.2028
      4 C          -0.1715   -0.3733    1.4524 C.3     1  UNL1       -0.0433
      5 C          -1.9821   -0.7734   -0.0696 C.3     1  UNL1       -0.0140
      6 C          -1.6064   -2.2479   -0.2304 C.3     1  UNL1        0.0806
      7 H          -1.1055   -2.6004    0.6712 H       1  UNL1        0.0541
      8 C          -2.8752   -3.0833   -0.4807 C.3     1  UNL1        0.0159
      9 S          -2.6461   -4.7768   -0.1152 S.3     1  UNL1       -0.1589
     10 C          -1.3193   -5.3149   -1.2551 C.3     1  UNL1       -0.0051
     11 C           0.0049   -4.7926   -0.7950 C.3     1  UNL1       -0.0295
     12 C           0.3494   -3.3932   -1.3686 C.3     1  UNL1        0.0218
     13 N          -0.7408   -2.4050   -1.3559 N.3     1  UNL1       -0.1676
     14 S          -0.9730   -1.4474   -2.6868 S.O2    1  UNL1        0.0613
     15 O          -1.1859   -0.1293   -2.2005 O.2     1  UNL1       -0.1528
     16 O           0.0592   -1.7797   -3.6052 O.2     1  UNL1       -0.1528
     17 C          -2.4862   -1.9522   -3.4350 C.ar    1  UNL1        0.1055
     18 C          -2.4841   -2.9447   -4.3973 C.ar    1  UNL1       -0.0348
     19 C          -3.6713   -3.3408   -4.9843 C.ar    1  UNL1       -0.0483
     20 C          -4.8607   -2.7447   -4.6087 C.ar    1  UNL1        0.0549
     21 C          -6.1548   -3.1761   -5.2490 C.3     1  UNL1        0.4174
     22 F          -6.7159   -4.2217   -4.5080 F       1  UNL1       -0.1659
     23 F          -7.0435   -2.0960   -5.2782 F       1  UNL1       -0.1659
     24 F          -5.9066   -3.6111   -6.5553 F       1  UNL1       -0.1659
     25 C          -4.8629   -1.7532   -3.6455 C.ar    1  UNL1       -0.0483
     26 C          -3.6762   -1.3598   -3.0557 C.ar    1  UNL1       -0.0348
     27 H          -0.2117    2.0330    0.3797 H       1  UNL1        0.0777
     28 H          -1.5551    1.7361   -0.7496 H       1  UNL1        0.0777
     29 H          -1.8276    1.6270    1.0060 H       1  UNL1        0.0777
     30 H           0.0845   -1.4325    1.4262 H       1  UNL1        0.0777
     31 H           0.7296    0.2141    1.6287 H       1  UNL1        0.0777
     32 H          -0.8863   -0.1920    2.2551 H       1  UNL1        0.0777
     33 H          -2.6602   -0.6615    0.7765 H       1  UNL1        0.0831
     34 H          -2.4727   -0.4224   -0.9774 H       1  UNL1        0.0831
     35 H          -3.6815   -2.6945    0.1412 H       1  UNL1        0.0394
     36 H          -3.1614   -2.9844   -1.5278 H       1  UNL1        0.0394
     37 H          -1.2876   -6.4041   -1.2830 H       1  UNL1        0.0377
     38 H          -1.5283   -4.9370   -2.2559 H       1  UNL1        0.0377
     39 H          -0.0026   -4.7318    0.2932 H       1  UNL1        0.0286
     40 H           0.7816   -5.4950   -1.0976 H       1  UNL1        0.0286
     41 H           1.1829   -2.9866   -0.7958 H       1  UNL1        0.0444
     42 H           0.6817   -3.5203   -2.3989 H       1  UNL1        0.0444
     43 H          -1.5549   -3.4104   -4.6907 H       1  UNL1        0.0637
     44 H          -3.6696   -4.1157   -5.7366 H       1  UNL1        0.0624
     45 H          -5.7922   -1.2877   -3.3518 H       1  UNL1        0.0624
     46 H          -3.6779   -0.5851   -2.3032 H       1  UNL1        0.0637
@<TRIPOS>UNITY_ATOM_ATTR
2 1
charge 1
@<TRIPOS>BOND
     1     1     2    1
     2     1    27    1
     3     1    28    1
     4     1    29    1
     5     2     3    1
     6     2     4    1
     7     2     5    1
     8     4    30    1
     9     4    31    1
    10     4    32    1
    11     5     6    1
    12     5    33    1
    13     5    34    1
    14     6     7    1
    15     6    13    1
    16     6     8    1
    17     8     9    1
    18     8    35    1
    19     8    36    1
    20     9    10    1
    21    10    11    1
    22    10    37    1
    23    10    38    1
    24    11    12    1
    25    11    39    1
    26    11    40    1
    27    12    13    1
    28    12    41    1
    29    12    42    1
    30    14    13    1
    31    14    15    2
    32    14    16    2
    33    14    17    1
    34    17    26   ar
    35    17    18   ar
    36    18    19   ar
    37    18    43    1
    38    19    20   ar
    39    19    44    1
    40    20    21    1
    41    20    25   ar
    42    21    22    1
    43    21    23    1
    44    21    24    1
    45    25    26   ar
    46    25    45    1
    47    26    46    1
