@<TRIPOS>MOLECULE
ZINC000019929932
 59 60 0 0 0
SMALL
GASTEIGER

@<TRIPOS>ATOM
      1 C          -0.0187    1.5258    0.0104 C.3     1  UNL1       -0.0507
      2 C           0.0021   -0.0041    0.0020 C.3     1  UNL1        0.0182
      3 N          -1.3723   -0.5112    0.0124 N.3     1  UNL1       -0.1681
      4 C          -2.1099   -0.6542   -1.2453 C.3     1  UNL1        0.0968
      5 C          -1.7778   -1.9829   -1.8740 C.2     1  UNL1        0.2290
      6 O          -1.0015   -2.7362   -1.3256 O.2     1  UNL1       -0.2743
      7 N          -2.3435   -2.3340   -3.0459 N.am    1  UNL1       -0.3116
      8 C          -2.0207   -3.6257   -3.6571 C.3     1  UNL1        0.0206
      9 H          -0.9778   -3.8717   -3.4573 H       1  UNL1        0.0495
     10 C          -2.9230   -4.7100   -3.0646 C.3     1  UNL1       -0.0466
     11 C          -2.2452   -3.5451   -5.1684 C.3     1  UNL1       -0.0308
     12 C          -1.2560   -2.5500   -5.7785 C.3     1  UNL1       -0.0260
     13 C          -1.4771   -2.4706   -7.2671 C.ar    1  UNL1       -0.0473
     14 C          -0.7937   -3.3232   -8.1138 C.ar    1  UNL1       -0.0586
     15 C          -0.9965   -3.2504   -9.4793 C.ar    1  UNL1       -0.0615
     16 C          -1.8830   -2.3252   -9.9980 C.ar    1  UNL1       -0.0617
     17 C          -2.5671   -1.4732   -9.1512 C.ar    1  UNL1       -0.0615
     18 C          -2.3675   -1.5490   -7.7854 C.ar    1  UNL1       -0.0586
     19 S          -2.0922   -0.9227    1.4458 S.O2    1  UNL1        0.0613
     20 O          -3.1196   -1.8512    1.1269 O.2     1  UNL1       -0.1528
     21 O          -1.0393   -1.2108    2.3555 O.2     1  UNL1       -0.1528
     22 C          -2.8978    0.5199    2.0580 C.ar    1  UNL1        0.1060
     23 C          -2.2145    1.3947    2.8819 C.ar    1  UNL1       -0.0319
     24 C          -2.8438    2.5268    3.3629 C.ar    1  UNL1       -0.0178
     25 C          -4.1623    2.7852    3.0183 C.ar    1  UNL1        0.1231
     26 O          -4.7833    3.8983    3.4897 O.3     1  UNL1       -0.4948
     27 C          -4.0182    4.7590    4.3357 C.3     1  UNL1        0.0788
     28 C          -4.8460    1.9056    2.1912 C.ar    1  UNL1       -0.0070
     29 C          -6.2784    2.1836    1.8144 C.3     1  UNL1       -0.0362
     30 C          -4.2107    0.7780    1.7088 C.ar    1  UNL1       -0.0290
     31 H           1.0039    1.9031    0.0027 H       1  UNL1        0.0243
     32 H          -0.5459    1.8868   -0.8726 H       1  UNL1        0.0243
     33 H          -0.5289    1.8773    0.9072 H       1  UNL1        0.0243
     34 H           0.5123   -0.3556   -0.8948 H       1  UNL1        0.0441
     35 H           0.5293   -0.3651    0.8851 H       1  UNL1        0.0441
     36 H          -3.1804   -0.6037   -1.0465 H       1  UNL1        0.0539
     37 H          -1.8283    0.1500   -1.9251 H       1  UNL1        0.0539
     38 H          -2.9644   -1.7315   -3.4845 H       1  UNL1        0.1490
     39 H          -2.6829   -5.6710   -3.5194 H       1  UNL1        0.0247
     40 H          -2.7631   -4.7674   -1.9879 H       1  UNL1        0.0247
     41 H          -3.9659   -4.4640   -3.2644 H       1  UNL1        0.0247
     42 H          -2.0910   -4.5289   -5.6116 H       1  UNL1        0.0286
     43 H          -3.2641   -3.2127   -5.3672 H       1  UNL1        0.0286
     44 H          -1.4102   -1.5662   -5.3353 H       1  UNL1        0.0314
     45 H          -0.2371   -2.8824   -5.5798 H       1  UNL1        0.0314
     46 H          -0.1011   -4.0460   -7.7086 H       1  UNL1        0.0620
     47 H          -0.4620   -3.9160  -10.1408 H       1  UNL1        0.0618
     48 H          -2.0409   -2.2678  -11.0648 H       1  UNL1        0.0618
     49 H          -3.2594   -0.7502   -9.5565 H       1  UNL1        0.0618
     50 H          -2.9019   -0.8833   -7.1238 H       1  UNL1        0.0620
     51 H          -1.1880    1.1928    3.1502 H       1  UNL1        0.0638
     52 H          -2.3096    3.2097    4.0068 H       1  UNL1        0.0655
     53 H          -3.6955    4.2075    5.2188 H       1  UNL1        0.0660
     54 H          -3.1442    5.1190    3.7928 H       1  UNL1        0.0660
     55 H          -4.6311    5.6072    4.6409 H       1  UNL1        0.0660
     56 H          -6.3051    2.7770    0.9005 H       1  UNL1        0.0279
     57 H          -6.8006    1.2409    1.6510 H       1  UNL1        0.0279
     58 H          -6.7655    2.7340    2.6194 H       1  UNL1        0.0279
     59 H          -4.7423    0.0932    1.0646 H       1  UNL1        0.0641
@<TRIPOS>BOND
     1     1     2    1
     2     1    31    1
     3     1    32    1
     4     1    33    1
     5     2     3    1
     6     2    34    1
     7     2    35    1
     8     3     4    1
     9    19     3    1
    10     4     5    1
    11     4    36    1
    12     4    37    1
    13     5     6    2
    14     5     7   am
    15     7     8    1
    16     7    38    1
    17     8     9    1
    18     8    10    1
    19     8    11    1
    20    10    39    1
    21    10    40    1
    22    10    41    1
    23    11    12    1
    24    11    42    1
    25    11    43    1
    26    12    13    1
    27    12    44    1
    28    12    45    1
    29    13    18   ar
    30    13    14   ar
    31    14    15   ar
    32    14    46    1
    33    15    16   ar
    34    15    47    1
    35    16    17   ar
    36    16    48    1
    37    17    18   ar
    38    17    49    1
    39    18    50    1
    40    19    20    2
    41    19    21    2
    42    19    22    1
    43    22    30   ar
    44    22    23   ar
    45    23    24   ar
    46    23    51    1
    47    24    25   ar
    48    24    52    1
    49    25    26    1
    50    25    28   ar
    51    26    27    1
    52    27    53    1
    53    27    54    1
    54    27    55    1
    55    28    29    1
    56    28    30   ar
    57    29    56    1
    58    29    57    1
    59    29    58    1
    60    30    59    1
