@<TRIPOS>MOLECULE
ZINC000408614016
 67 69 0 0 0
SMALL
GASTEIGER

@<TRIPOS>ATOM
      1 C          -9.0577   -6.1146    4.1573 C.3     1  UNL1        0.0790
      2 O          -9.2411   -4.7883    3.6578 O.3     1  UNL1       -0.4915
      3 C          -8.2892   -4.3098    2.8125 C.ar    1  UNL1        0.1616
      4 C          -7.2062   -5.1014    2.4672 C.ar    1  UNL1       -0.0145
      5 C          -6.2394   -4.6135    1.6072 C.ar    1  UNL1       -0.0317
      6 C          -6.3505   -3.3364    1.0908 C.ar    1  UNL1        0.1092
      7 S          -5.1151   -2.7203   -0.0041 S.O2    1  UNL1        0.0617
      8 O          -5.1614   -1.3035    0.0950 O.2     1  UNL1       -0.1528
      9 O          -3.9405   -3.4791    0.2487 O.2     1  UNL1       -0.1528
     10 N          -5.5928   -3.0973   -1.5442 N.3     1  UNL1       -0.1635
     11 C          -5.3013   -4.4218   -2.0981 C.3     1  UNL1        0.0971
     12 C          -6.4905   -5.3247   -1.8936 C.2     1  UNL1        0.2290
     13 O          -7.4837   -4.9032   -1.3397 O.2     1  UNL1       -0.2743
     14 N          -6.4502   -6.6005   -2.3262 N.am    1  UNL1       -0.3116
     15 C          -7.6062   -7.4782   -2.1274 C.3     1  UNL1        0.0206
     16 H          -8.0872   -7.2365   -1.1796 H       1  UNL1        0.0495
     17 C          -8.6025   -7.2762   -3.2709 C.3     1  UNL1       -0.0466
     18 C          -7.1422   -8.9359   -2.1068 C.3     1  UNL1       -0.0308
     19 C          -6.2439   -9.1680   -0.8902 C.3     1  UNL1       -0.0260
     20 C          -5.7868  -10.6039   -0.8699 C.ar    1  UNL1       -0.0473
     21 C          -6.5395  -11.5596   -0.2134 C.ar    1  UNL1       -0.0586
     22 C          -6.1203  -12.8767   -0.1947 C.ar    1  UNL1       -0.0615
     23 C          -4.9486  -13.2382   -0.8330 C.ar    1  UNL1       -0.0617
     24 C          -4.1963  -12.2827   -1.4902 C.ar    1  UNL1       -0.0615
     25 C          -4.6178  -10.9663   -1.5125 C.ar    1  UNL1       -0.0586
     26 C          -6.3071   -2.1062   -2.3528 C.3     1  UNL1        0.0460
     27 C          -5.3272   -1.3791   -3.2373 C.ar    1  UNL1       -0.0317
     28 C          -4.7917   -0.1718   -2.8293 C.ar    1  UNL1       -0.0573
     29 C          -3.8929    0.4951   -3.6406 C.ar    1  UNL1       -0.0615
     30 C          -3.5292   -0.0456   -4.8598 C.ar    1  UNL1       -0.0617
     31 C          -4.0640   -1.2534   -5.2674 C.ar    1  UNL1       -0.0615
     32 C          -4.9595   -1.9223   -4.4541 C.ar    1  UNL1       -0.0573
     33 C          -7.4294   -2.5411    1.4311 C.ar    1  UNL1        0.0101
     34 C          -8.4041   -3.0256    2.2879 C.ar    1  UNL1        0.1633
     35 O          -9.4657   -2.2448    2.6236 O.3     1  UNL1       -0.4914
     36 C          -9.5125   -0.9344    2.0556 C.3     1  UNL1        0.0790
     37 H          -9.8855   -6.3716    4.8181 H       1  UNL1        0.0660
     38 H          -9.0272   -6.8159    3.3234 H       1  UNL1        0.0660
     39 H          -8.1205   -6.1678    4.7113 H       1  UNL1        0.0660
     40 H          -7.1166   -6.0995    2.8699 H       1  UNL1        0.0656
     41 H          -5.3955   -5.2317    1.3387 H       1  UNL1        0.0638
     42 H          -5.0924   -4.3319   -3.1641 H       1  UNL1        0.0539
     43 H          -4.4332   -4.8442   -1.5921 H       1  UNL1        0.0539
     44 H          -5.6558   -6.9376   -2.7692 H       1  UNL1        0.1490
     45 H          -9.4626   -7.9292   -3.1230 H       1  UNL1        0.0247
     46 H          -8.9331   -6.2377   -3.2856 H       1  UNL1        0.0247
     47 H          -8.1216   -7.5179   -4.2187 H       1  UNL1        0.0247
     48 H          -8.0101   -9.5927   -2.0481 H       1  UNL1        0.0286
     49 H          -6.5837   -9.1524   -3.0174 H       1  UNL1        0.0286
     50 H          -5.3759   -8.5113   -0.9489 H       1  UNL1        0.0314
     51 H          -6.8024   -8.9516    0.0205 H       1  UNL1        0.0314
     52 H          -7.4549  -11.2772    0.2852 H       1  UNL1        0.0620
     53 H          -6.7080  -13.6232    0.3188 H       1  UNL1        0.0618
     54 H          -4.6206  -14.2671   -0.8178 H       1  UNL1        0.0618
     55 H          -3.2807  -12.5650   -1.9886 H       1  UNL1        0.0618
     56 H          -4.0301  -10.2198   -2.0260 H       1  UNL1        0.0620
     57 H          -7.0506   -2.6093   -2.9710 H       1  UNL1        0.0493
     58 H          -6.8037   -1.3915   -1.6965 H       1  UNL1        0.0493
     59 H          -5.0759    0.2506   -1.8768 H       1  UNL1        0.0621
     60 H          -3.4751    1.4387   -3.3222 H       1  UNL1        0.0618
     61 H          -2.8275    0.4758   -5.4940 H       1  UNL1        0.0618
     62 H          -3.7801   -1.6756   -6.2200 H       1  UNL1        0.0618
     63 H          -5.3773   -2.8660   -4.7726 H       1  UNL1        0.0621
     64 H          -7.5139   -1.5434    1.0261 H       1  UNL1        0.0675
     65 H          -9.5368   -1.0102    0.9685 H       1  UNL1        0.0660
     66 H         -10.4077   -0.4192    2.4040 H       1  UNL1        0.0660
     67 H          -8.6288   -0.3742    2.3611 H       1  UNL1        0.0660
@<TRIPOS>BOND
     1     1     2    1
     2     1    37    1
     3     1    38    1
     4     1    39    1
     5     2     3    1
     6     3    34   ar
     7     3     4   ar
     8     4     5   ar
     9     4    40    1
    10     5     6   ar
    11     5    41    1
    12     6     7    1
    13     6    33   ar
    14     7     8    2
    15     7     9    2
    16     7    10    1
    17    10    11    1
    18    10    26    1
    19    11    12    1
    20    11    42    1
    21    11    43    1
    22    12    13    2
    23    12    14   am
    24    14    15    1
    25    14    44    1
    26    15    16    1
    27    15    17    1
    28    15    18    1
    29    17    45    1
    30    17    46    1
    31    17    47    1
    32    18    19    1
    33    18    48    1
    34    18    49    1
    35    19    20    1
    36    19    50    1
    37    19    51    1
    38    20    25   ar
    39    20    21   ar
    40    21    22   ar
    41    21    52    1
    42    22    23   ar
    43    22    53    1
    44    23    24   ar
    45    23    54    1
    46    24    25   ar
    47    24    55    1
    48    25    56    1
    49    26    27    1
    50    26    57    1
    51    26    58    1
    52    27    32   ar
    53    27    28   ar
    54    28    29   ar
    55    28    59    1
    56    29    30   ar
    57    29    60    1
    58    30    31   ar
    59    30    61    1
    60    31    32   ar
    61    31    62    1
    62    32    63    1
    63    33    34   ar
    64    33    64    1
    65    34    35    1
    66    35    36    1
    67    36    65    1
    68    36    66    1
    69    36    67    1
