@<TRIPOS>MOLECULE
ZINC000016576329
 59 61 0 0 0
SMALL
GASTEIGER

@<TRIPOS>ATOM
      1 C          -0.0187    1.5258    0.0104 C.3     1  UNL1       -0.0466
      2 C           0.0021   -0.0041    0.0020 C.3     1  UNL1        0.0206
      3 H           0.5123   -0.3556   -0.8948 H       1  UNL1        0.0495
      4 C          -1.4333   -0.5336    0.0129 C.3     1  UNL1       -0.0308
      5 C          -1.4157   -2.0577   -0.1212 C.3     1  UNL1       -0.0260
      6 C          -2.8295   -2.5793   -0.1105 C.ar    1  UNL1       -0.0473
      7 C          -3.4324   -2.9175    1.0866 C.ar    1  UNL1       -0.0586
      8 C          -4.7292   -3.3959    1.0964 C.ar    1  UNL1       -0.0615
      9 C          -5.4233   -3.5358   -0.0908 C.ar    1  UNL1       -0.0617
     10 C          -4.8208   -3.1967   -1.2878 C.ar    1  UNL1       -0.0615
     11 C          -3.5254   -2.7142   -1.2973 C.ar    1  UNL1       -0.0586
     12 N           0.7106   -0.4894    1.1889 N.am    1  UNL1       -0.3116
     13 C           2.0538   -0.5998    1.1737 C.2     1  UNL1        0.2290
     14 O           2.6758   -0.2974    0.1774 O.2     1  UNL1       -0.2743
     15 C           2.7826   -1.0990    2.3946 C.3     1  UNL1        0.0971
     16 N           4.2226   -1.1273    2.1261 N.3     1  UNL1       -0.1635
     17 C           5.0266    0.0829    2.3137 C.3     1  UNL1        0.0460
     18 C           5.4443    0.1897    3.7577 C.ar    1  UNL1       -0.0317
     19 C           4.6395    0.8565    4.6625 C.ar    1  UNL1       -0.0573
     20 C           5.0227    0.9544    5.9871 C.ar    1  UNL1       -0.0615
     21 C           6.2104    0.3852    6.4070 C.ar    1  UNL1       -0.0617
     22 C           7.0147   -0.2824    5.5023 C.ar    1  UNL1       -0.0615
     23 C           6.6294   -0.3840    4.1786 C.ar    1  UNL1       -0.0573
     24 S           4.9414   -2.5273    1.6107 S.O2    1  UNL1        0.0616
     25 O           6.3143   -2.4267    1.9631 O.2     1  UNL1       -0.1528
     26 O           4.1040   -3.5909    2.0427 O.2     1  UNL1       -0.1528
     27 C           4.8785   -2.5282   -0.1502 C.ar    1  UNL1        0.1055
     28 C           3.7925   -3.0812   -0.8027 C.ar    1  UNL1       -0.0353
     29 C           3.7431   -3.0819   -2.1841 C.ar    1  UNL1       -0.0599
     30 C           4.7795   -2.5293   -2.9131 C.ar    1  UNL1       -0.0616
     31 C           5.8651   -1.9756   -2.2606 C.ar    1  UNL1       -0.0599
     32 C           5.9124   -1.9710   -0.8791 C.ar    1  UNL1       -0.0353
     33 H           1.0039    1.9031    0.0027 H       1  UNL1        0.0247
     34 H          -0.5459    1.8868   -0.8726 H       1  UNL1        0.0247
     35 H          -0.5289    1.8773    0.9072 H       1  UNL1        0.0247
     36 H          -1.9156   -0.2570    0.9504 H       1  UNL1        0.0286
     37 H          -1.9862   -0.1019   -0.8214 H       1  UNL1        0.0286
     38 H          -0.9334   -2.3344   -1.0587 H       1  UNL1        0.0314
     39 H          -0.8628   -2.4894    0.7131 H       1  UNL1        0.0314
     40 H          -2.8901   -2.8082    2.0141 H       1  UNL1        0.0620
     41 H          -5.2000   -3.6608    2.0316 H       1  UNL1        0.0618
     42 H          -6.4363   -3.9103   -0.0832 H       1  UNL1        0.0618
     43 H          -5.3630   -3.3063   -2.2154 H       1  UNL1        0.0618
     44 H          -3.0546   -2.4493   -2.2324 H       1  UNL1        0.0620
     45 H           0.2131   -0.7312    1.9857 H       1  UNL1        0.1490
     46 H           2.5826   -0.4337    3.2345 H       1  UNL1        0.0539
     47 H           2.4385   -2.1044    2.6374 H       1  UNL1        0.0539
     48 H           5.9132    0.0316    1.6818 H       1  UNL1        0.0493
     49 H           4.4360    0.9574    2.0407 H       1  UNL1        0.0493
     50 H           3.7116    1.3012    4.3345 H       1  UNL1        0.0621
     51 H           4.3943    1.4760    6.6939 H       1  UNL1        0.0618
     52 H           6.5101    0.4623    7.4417 H       1  UNL1        0.0618
     53 H           7.9428   -0.7268    5.8303 H       1  UNL1        0.0618
     54 H           7.2578   -0.9055    3.4719 H       1  UNL1        0.0621
     55 H           2.9827   -3.5129   -0.2331 H       1  UNL1        0.0637
     56 H           2.8949   -3.5146   -2.6939 H       1  UNL1        0.0618
     57 H           4.7412   -2.5305   -3.9924 H       1  UNL1        0.0618
     58 H           6.6749   -1.5441   -2.8301 H       1  UNL1        0.0618
     59 H           6.7606   -1.5383   -0.3693 H       1  UNL1        0.0637
@<TRIPOS>BOND
     1     1     2    1
     2     1    33    1
     3     1    34    1
     4     1    35    1
     5     2     3    1
     6     2     4    1
     7     2    12    1
     8     4     5    1
     9     4    36    1
    10     4    37    1
    11     5     6    1
    12     5    38    1
    13     5    39    1
    14     6    11   ar
    15     6     7   ar
    16     7     8   ar
    17     7    40    1
    18     8     9   ar
    19     8    41    1
    20     9    10   ar
    21     9    42    1
    22    10    11   ar
    23    10    43    1
    24    11    44    1
    25    12    13   am
    26    12    45    1
    27    13    14    2
    28    13    15    1
    29    15    16    1
    30    15    46    1
    31    15    47    1
    32    16    17    1
    33    24    16    1
    34    17    18    1
    35    17    48    1
    36    17    49    1
    37    18    23   ar
    38    18    19   ar
    39    19    20   ar
    40    19    50    1
    41    20    21   ar
    42    20    51    1
    43    21    22   ar
    44    21    52    1
    45    22    23   ar
    46    22    53    1
    47    23    54    1
    48    24    25    2
    49    24    26    2
    50    24    27    1
    51    27    32   ar
    52    27    28   ar
    53    28    29   ar
    54    28    55    1
    55    29    30   ar
    56    29    56    1
    57    30    31   ar
    58    30    57    1
    59    31    32   ar
    60    31    58    1
    61    32    59    1
