@<TRIPOS>MOLECULE
ZINC000039986010
 43 43 0 0 0
SMALL
GASTEIGER

@<TRIPOS>ATOM
      1 C          -0.0187    1.5258    0.0104 C.3     1  UNL1       -0.0507
      2 C           0.0021   -0.0041    0.0020 C.3     1  UNL1        0.0182
      3 N           0.7106   -0.4894    1.1889 N.3     1  UNL1       -0.1681
      4 C          -0.0062   -0.6460    2.4569 C.3     1  UNL1        0.0968
      5 C          -0.6831   -1.9920    2.4883 C.2     1  UNL1        0.2291
      6 O          -0.5773   -2.7462    1.5445 O.2     1  UNL1       -0.2743
      7 N          -1.4062   -2.3577    3.5653 N.am    1  UNL1       -0.3094
      8 C          -2.0643   -3.6662    3.5959 C.3     1  UNL1        0.0437
      9 H          -1.4424   -4.3978    3.0800 H       1  UNL1        0.0518
     10 C          -3.4231   -3.5701    2.8992 C.3     1  UNL1       -0.0445
     11 C          -2.2658   -4.1019    5.0486 C.3     1  UNL1        0.0654
     12 O          -3.1744   -3.2067    5.6928 O.3     1  UNL1       -0.3812
     13 C          -3.4328   -3.5260    7.0615 C.3     1  UNL1        0.0365
     14 S           2.3218   -0.8609    1.0971 S.O2    1  UNL1        0.0613
     15 O           2.5823   -1.7795    2.1496 O.2     1  UNL1       -0.1528
     16 O           2.5905   -1.1471   -0.2686 O.2     1  UNL1       -0.1528
     17 C           3.2182    0.6060    1.4837 C.ar    1  UNL1        0.1055
     18 C           3.5687    1.4871    0.4779 C.ar    1  UNL1       -0.0353
     19 C           4.2720    2.6379    0.7812 C.ar    1  UNL1       -0.0599
     20 C           4.6242    2.9079    2.0903 C.ar    1  UNL1       -0.0616
     21 C           4.2728    2.0272    3.0963 C.ar    1  UNL1       -0.0599
     22 C           3.5659    0.8785    2.7936 C.ar    1  UNL1       -0.0353
     23 H           1.0039    1.9031    0.0027 H       1  UNL1        0.0243
     24 H          -0.5459    1.8868   -0.8726 H       1  UNL1        0.0243
     25 H          -0.5289    1.8773    0.9072 H       1  UNL1        0.0243
     26 H          -1.0205   -0.3814    0.0098 H       1  UNL1        0.0441
     27 H           0.5123   -0.3556   -0.8948 H       1  UNL1        0.0441
     28 H           0.6997   -0.5749    3.2845 H       1  UNL1        0.0539
     29 H          -0.7557    0.1399    2.5501 H       1  UNL1        0.0539
     30 H          -1.4909   -1.7545    4.3202 H       1  UNL1        0.1491
     31 H          -3.2795   -3.2596    1.8642 H       1  UNL1        0.0248
     32 H          -3.9127   -4.5436    2.9219 H       1  UNL1        0.0248
     33 H          -4.0450   -2.8385    3.4150 H       1  UNL1        0.0248
     34 H          -2.6738   -5.1124    5.0716 H       1  UNL1        0.0578
     35 H          -1.3083   -4.0847    5.5692 H       1  UNL1        0.0578
     36 H          -4.1310   -2.8002    7.4784 H       1  UNL1        0.0523
     37 H          -3.8650   -4.5246    7.1262 H       1  UNL1        0.0523
     38 H          -2.4995   -3.4969    7.6239 H       1  UNL1        0.0523
     39 H           3.2935    1.2761   -0.5449 H       1  UNL1        0.0637
     40 H           4.5465    3.3259   -0.0048 H       1  UNL1        0.0618
     41 H           5.1742    3.8066    2.3272 H       1  UNL1        0.0618
     42 H           4.5483    2.2380    4.1191 H       1  UNL1        0.0618
     43 H           3.2914    0.1905    3.5795 H       1  UNL1        0.0637
@<TRIPOS>BOND
     1     1     2    1
     2     1    23    1
     3     1    24    1
     4     1    25    1
     5     2     3    1
     6     2    26    1
     7     2    27    1
     8     3     4    1
     9    14     3    1
    10     4     5    1
    11     4    28    1
    12     4    29    1
    13     5     6    2
    14     5     7   am
    15     7     8    1
    16     7    30    1
    17     8     9    1
    18     8    10    1
    19     8    11    1
    20    10    31    1
    21    10    32    1
    22    10    33    1
    23    11    12    1
    24    11    34    1
    25    11    35    1
    26    12    13    1
    27    13    36    1
    28    13    37    1
    29    13    38    1
    30    14    15    2
    31    14    16    2
    32    14    17    1
    33    17    22   ar
    34    17    18   ar
    35    18    19   ar
    36    18    39    1
    37    19    20   ar
    38    19    40    1
    39    20    21   ar
    40    20    41    1
    41    21    22   ar
    42    21    42    1
    43    22    43    1
