@<TRIPOS>MOLECULE
ZINC000000387132
 39 40 0 0 0
SMALL
GASTEIGER

@<TRIPOS>ATOM
      1 C           0.0331    1.5223   -0.0321 C.3     1  UNL1       -0.0478
      2 C           0.0297   -0.0077   -0.0187 C.3     1  UNL1        0.0294
      3 H           0.4703   -0.3821   -0.9427 H       1  UNL1        0.0477
      4 C          -1.4096   -0.5170    0.1072 C.3     1  UNL1       -0.0359
      5 C          -1.3962   -2.0397    0.2599 C.3     1  UNL1       -0.0501
      6 C          -0.6362   -2.4197    1.5328 C.3     1  UNL1       -0.0359
      7 C           0.8118   -1.9319    1.4231 C.3     1  UNL1        0.0294
      8 H           1.3303   -2.1117    2.3649 H       1  UNL1        0.0477
      9 C           1.5220   -2.6832    0.2952 C.3     1  UNL1       -0.0478
     10 N           0.8079   -0.4919    1.1296 N.3     1  UNL1       -0.1710
     11 S           1.6590    0.5649    2.0787 S.O2    1  UNL1        0.0613
     12 O           0.9550    1.7985    2.0366 O.2     1  UNL1       -0.1528
     13 O           1.9477   -0.1243    3.2874 O.2     1  UNL1       -0.1528
     14 C           3.2068    0.8479    1.2856 C.ar    1  UNL1        0.1060
     15 C           4.2876    0.0346    1.5693 C.ar    1  UNL1       -0.0353
     16 C           5.5021    0.2567    0.9470 C.ar    1  UNL1       -0.0594
     17 C           5.6352    1.2917    0.0408 C.ar    1  UNL1       -0.0500
     18 C           4.5537    2.1048   -0.2437 C.ar    1  UNL1        0.0567
     19 C           4.6990    3.2336   -1.2314 C.3     1  UNL1        0.4175
     20 F           6.0086    3.2578   -1.7228 F       1  UNL1       -0.1659
     21 F           3.8065    3.0432   -2.2918 F       1  UNL1       -0.1659
     22 F           4.4166    4.4479   -0.5966 F       1  UNL1       -0.1659
     23 C           3.3385    1.8801    0.3752 C.ar    1  UNL1       -0.0237
     24 H           1.0598    1.8838    0.0248 H       1  UNL1        0.0245
     25 H          -0.4271    1.8786   -0.9537 H       1  UNL1        0.0245
     26 H          -0.5310    1.8943    0.8232 H       1  UNL1        0.0245
     27 H          -1.8793   -0.0677    0.9822 H       1  UNL1        0.0281
     28 H          -1.9709   -0.2460   -0.7870 H       1  UNL1        0.0281
     29 H          -2.4203   -2.4071    0.3250 H       1  UNL1        0.0266
     30 H          -0.9043   -2.4869   -0.6039 H       1  UNL1        0.0266
     31 H          -1.1132   -1.9525    2.3944 H       1  UNL1        0.0281
     32 H          -0.6471   -3.5029    1.6533 H       1  UNL1        0.0281
     33 H           1.0050   -2.4982   -0.6464 H       1  UNL1        0.0245
     34 H           2.5520   -2.3348    0.2187 H       1  UNL1        0.0245
     35 H           1.5149   -3.7519    0.5097 H       1  UNL1        0.0245
     36 H           4.1836   -0.7742    2.2775 H       1  UNL1        0.0637
     37 H           6.3468   -0.3785    1.1693 H       1  UNL1        0.0618
     38 H           6.5840    1.4656   -0.4448 H       1  UNL1        0.0623
     39 H           2.4937    2.5152    0.1530 H       1  UNL1        0.0642
@<TRIPOS>BOND
     1     1     2    1
     2     1    24    1
     3     1    25    1
     4     1    26    1
     5     2     3    1
     6     2    10    1
     7     2     4    1
     8     4     5    1
     9     4    27    1
    10     4    28    1
    11     5     6    1
    12     5    29    1
    13     5    30    1
    14     6     7    1
    15     6    31    1
    16     6    32    1
    17     7     8    1
    18     7     9    1
    19     7    10    1
    20     9    33    1
    21     9    34    1
    22     9    35    1
    23    11    10    1
    24    11    12    2
    25    11    13    2
    26    11    14    1
    27    14    23   ar
    28    14    15   ar
    29    15    16   ar
    30    15    36    1
    31    16    17   ar
    32    16    37    1
    33    17    18   ar
    34    17    38    1
    35    18    19    1
    36    18    23   ar
    37    19    20    1
    38    19    21    1
    39    19    22    1
    40    23    39    1
