@<TRIPOS>MOLECULE
ZINC000013267702
 35 36 0 0 0
SMALL
GASTEIGER

@<TRIPOS>ATOM
      1 O           0.0021   -0.0041    0.0020 O.co2   1  UNL1       -0.2460
      2 C          -0.0145    1.2150    0.0087 C.2     1  UNL1        0.3603
      3 O           1.0330    1.8389    0.0021 O.co2   1  UNL1       -0.2460
      4 C          -1.3296    1.9507    0.0190 C.3     1  UNL1        0.0750
      5 H          -2.1169    1.2838    0.3705 H       1  UNL1        0.0428
      6 C          -1.6591    2.4278   -1.3974 C.3     1  UNL1       -0.0375
      7 C          -3.0102    3.1465   -1.3940 C.3     1  UNL1       -0.0378
      8 C          -2.9303    4.3714   -0.4776 C.3     1  UNL1        0.0205
      9 N          -2.4733    3.9395    0.8503 N.3     1  UNL1       -0.1758
     10 S          -3.3423    4.3216    2.2073 S.O2    1  UNL1        0.0609
     11 O          -2.4284    4.2778    3.2945 O.2     1  UNL1       -0.1528
     12 O          -4.1085    5.4732    1.8819 O.2     1  UNL1       -0.1528
     13 C          -4.4950    3.0158    2.4733 C.ar    1  UNL1        0.1055
     14 C          -5.7499    3.0735    1.8964 C.ar    1  UNL1       -0.0348
     15 C          -6.6543    2.0491    2.1051 C.ar    1  UNL1       -0.0483
     16 C          -6.3036    0.9667    2.8903 C.ar    1  UNL1        0.0549
     17 C          -7.2897   -0.1498    3.1183 C.3     1  UNL1        0.4174
     18 F          -7.1342   -1.1198    2.1222 F       1  UNL1       -0.1659
     19 F          -7.0589   -0.7271    4.3715 F       1  UNL1       -0.1659
     20 F          -8.5913    0.3610    3.0726 F       1  UNL1       -0.1659
     21 C          -5.0482    0.9084    3.4661 C.ar    1  UNL1       -0.0483
     22 C          -4.1424    1.9310    3.2542 C.ar    1  UNL1       -0.0348
     23 C          -1.2309    3.1616    0.9521 C.3     1  UNL1        0.0336
     24 H          -0.8838    3.1136   -1.7390 H       1  UNL1        0.0274
     25 H          -1.7058    1.5698   -2.0679 H       1  UNL1        0.0274
     26 H          -3.2551    3.4655   -2.4071 H       1  UNL1        0.0278
     27 H          -3.7819    2.4687   -1.0290 H       1  UNL1        0.0278
     28 H          -2.2239    5.0915   -0.8907 H       1  UNL1        0.0444
     29 H          -3.9156    4.8299   -0.3936 H       1  UNL1        0.0444
     30 H          -6.0239    3.9191    1.2830 H       1  UNL1        0.0637
     31 H          -7.6350    2.0944    1.6550 H       1  UNL1        0.0624
     32 H          -4.7740    0.0627    4.0792 H       1  UNL1        0.0624
     33 H          -3.1616    1.8855    3.7040 H       1  UNL1        0.0637
     34 H          -1.0952    2.8225    1.9790 H       1  UNL1        0.0452
     35 H          -0.3856    3.7826    0.6554 H       1  UNL1        0.0452
@<TRIPOS>BOND
     1     1     2   ar
     2     2     3   ar
     3     2     4    1
     4     4     5    1
     5     4    23    1
     6     4     6    1
     7     6     7    1
     8     6    24    1
     9     6    25    1
    10     7     8    1
    11     7    26    1
    12     7    27    1
    13     8     9    1
    14     8    28    1
    15     8    29    1
    16    10     9    1
    17     9    23    1
    18    10    11    2
    19    10    12    2
    20    10    13    1
    21    13    22   ar
    22    13    14   ar
    23    14    15   ar
    24    14    30    1
    25    15    16   ar
    26    15    31    1
    27    16    17    1
    28    16    21   ar
    29    17    18    1
    30    17    19    1
    31    17    20    1
    32    21    22   ar
    33    21    32    1
    34    22    33    1
    35    23    34    1
    36    23    35    1
