@<TRIPOS>MOLECULE
ZINC000017301920
 52 54 0 0 0
SMALL
GASTEIGER

@<TRIPOS>ATOM
      1 C           0.0155    1.5427    0.0437 C.3     1  UNL1       -0.0507
      2 C           0.0408    0.0129    0.0345 C.3     1  UNL1        0.0177
      3 N          -1.3321   -0.4982    0.0351 N.3     1  UNL1       -0.1771
      4 C          -2.0605   -0.6427   -1.2278 C.3     1  UNL1        0.0177
      5 C          -1.7149   -1.9903   -1.8645 C.3     1  UNL1       -0.0507
      6 S          -2.0607   -0.9127    1.4632 S.O2    1  UNL1        0.0608
      7 O          -3.0831   -1.8440    1.1366 O.2     1  UNL1       -0.1528
      8 O          -1.0133   -1.1983    2.3801 O.2     1  UNL1       -0.1528
      9 C          -2.8748    0.5271    2.0706 C.ar    1  UNL1        0.1055
     10 C          -2.2010    1.4041    2.8998 C.ar    1  UNL1       -0.0351
     11 C          -2.8396    2.5337    3.3763 C.ar    1  UNL1       -0.0567
     12 C          -4.1520    2.7865    3.0231 C.ar    1  UNL1       -0.0468
     13 C          -4.8484    4.0177    3.5430 C.3     1  UNL1       -0.0194
     14 C          -4.6313    5.1765    2.5678 C.3     1  UNL1        0.0282
     15 C          -5.3277    6.4077    3.0876 C.2     1  UNL1        0.2175
     16 O          -5.9377    6.3628    4.1351 O.2     1  UNL1       -0.2755
     17 N          -5.2728    7.5587    2.3886 N.am    1  UNL1       -0.2854
     18 C          -5.9991    8.6761    2.8208 C.ar    1  UNL1        0.0371
     19 C          -6.5634    9.5390    1.8916 C.ar    1  UNL1       -0.0368
     20 C          -7.2798   10.6420    2.3164 C.ar    1  UNL1       -0.0144
     21 C          -7.4367   10.8896    3.6702 C.ar    1  UNL1        0.1663
     22 O          -8.0846   11.8901    4.3374 O.3     1  UNL1       -0.4526
     23 C          -8.2575   11.4059    5.6823 C.3     1  UNL1        0.2332
     24 O          -7.1657   10.4837    5.8570 O.3     1  UNL1       -0.4525
     25 C          -6.8718   10.0250    4.6053 C.ar    1  UNL1        0.1680
     26 C          -6.1593    8.9172    4.1788 C.ar    1  UNL1        0.0051
     27 C          -4.8254    1.9102    2.1928 C.ar    1  UNL1       -0.0567
     28 C          -4.1855    0.7826    1.7133 C.ar    1  UNL1       -0.0351
     29 H           1.0370    1.9230    0.0432 H       1  UNL1        0.0243
     30 H          -0.5066    1.9027   -0.8428 H       1  UNL1        0.0243
     31 H          -0.5019    1.8921    0.9371 H       1  UNL1        0.0243
     32 H           0.5583   -0.3366   -0.8589 H       1  UNL1        0.0441
     33 H           0.5629   -0.3471    0.9210 H       1  UNL1        0.0441
     34 H          -3.1325   -0.5955   -1.0364 H       1  UNL1        0.0441
     35 H          -1.7765    0.1627   -1.9052 H       1  UNL1        0.0441
     36 H          -1.9989   -2.7957   -1.1872 H       1  UNL1        0.0243
     37 H          -2.2568   -2.0978   -2.8042 H       1  UNL1        0.0243
     38 H          -0.6429   -2.0375   -2.0559 H       1  UNL1        0.0243
     39 H          -1.1756    1.2066    3.1757 H       1  UNL1        0.0637
     40 H          -2.3134    3.2186    4.0247 H       1  UNL1        0.0621
     41 H          -5.9157    3.8184    3.6386 H       1  UNL1        0.0318
     42 H          -4.4393    4.2821    4.5181 H       1  UNL1        0.0318
     43 H          -3.5640    5.3758    2.4721 H       1  UNL1        0.0362
     44 H          -5.0404    4.9121    1.5926 H       1  UNL1        0.0362
     45 H          -4.7305    7.6135    1.5862 H       1  UNL1        0.1548
     46 H          -6.4422    9.3485    0.8354 H       1  UNL1        0.0637
     47 H          -7.7177   11.3122    1.5915 H       1  UNL1        0.0656
     48 H          -8.1843   12.2257    6.3968 H       1  UNL1        0.1166
     49 H          -9.2131   10.8917    5.7843 H       1  UNL1        0.1166
     50 H          -5.7247    8.2431    4.9021 H       1  UNL1        0.0674
     51 H          -5.8506    2.1079    1.9166 H       1  UNL1        0.0621
     52 H          -4.7116    0.0979    1.0645 H       1  UNL1        0.0637
@<TRIPOS>BOND
     1     1     2    1
     2     1    29    1
     3     1    30    1
     4     1    31    1
     5     2     3    1
     6     2    32    1
     7     2    33    1
     8     3     4    1
     9     6     3    1
    10     4     5    1
    11     4    34    1
    12     4    35    1
    13     5    36    1
    14     5    37    1
    15     5    38    1
    16     6     7    2
    17     6     8    2
    18     6     9    1
    19     9    28   ar
    20     9    10   ar
    21    10    11   ar
    22    10    39    1
    23    11    12   ar
    24    11    40    1
    25    12    13    1
    26    12    27   ar
    27    13    14    1
    28    13    41    1
    29    13    42    1
    30    14    15    1
    31    14    43    1
    32    14    44    1
    33    15    16    2
    34    15    17   am
    35    17    18    1
    36    17    45    1
    37    18    26   ar
    38    18    19   ar
    39    19    20   ar
    40    19    46    1
    41    20    21   ar
    42    20    47    1
    43    21    25   ar
    44    21    22    1
    45    22    23    1
    46    23    24    1
    47    23    48    1
    48    23    49    1
    49    24    25    1
    50    25    26   ar
    51    26    50    1
    52    27    28   ar
    53    27    51    1
    54    28    52    1
