@<TRIPOS>MOLECULE
ZINC000016652580
 45 45 0 0 0
SMALL
GASTEIGER

@<TRIPOS>ATOM
      1 C          -0.0187    1.5258    0.0104 C.3     1  UNL1       -0.0495
      2 C           0.0021   -0.0041    0.0020 C.3     1  UNL1        0.0088
      3 N          -1.3723   -0.5112    0.0124 N.am    1  UNL1       -0.3156
      4 C          -1.6006   -1.8394    0.0075 C.2     1  UNL1        0.2133
      5 O          -0.6682   -2.6149   -0.0056 O.2     1  UNL1       -0.2758
      6 C          -3.0144   -2.3611    0.0182 C.3     1  UNL1        0.0279
      7 C          -2.9937   -3.8909    0.0097 C.3     1  UNL1       -0.0194
      8 C          -4.4075   -4.4125    0.0204 C.ar    1  UNL1       -0.0468
      9 C          -5.0464   -4.6528    1.2225 C.ar    1  UNL1       -0.0567
     10 C          -6.3433   -5.1313    1.2323 C.ar    1  UNL1       -0.0351
     11 C          -7.0013   -5.3690    0.0401 C.ar    1  UNL1        0.1055
     12 S          -8.6542   -5.9795    0.0526 S.O2    1  UNL1        0.0608
     13 O          -8.8521   -6.6274   -1.1965 O.2     1  UNL1       -0.1528
     14 O          -8.8319   -6.6310    1.3029 O.2     1  UNL1       -0.1528
     15 N          -9.6620   -4.6655    0.0627 N.3     1  UNL1       -0.1771
     16 C         -10.1180   -4.0824   -1.2016 C.3     1  UNL1        0.0177
     17 C         -11.4827   -4.6677   -1.5702 C.3     1  UNL1       -0.0507
     18 C         -10.0975   -4.0861    1.3358 C.3     1  UNL1        0.0177
     19 C          -9.1756   -2.9233    1.7088 C.3     1  UNL1       -0.0507
     20 C          -6.3629   -5.1274   -1.1619 C.ar    1  UNL1       -0.0351
     21 C          -5.0673   -4.6453   -1.1717 C.ar    1  UNL1       -0.0567
     22 H           1.0039    1.9031    0.0027 H       1  UNL1        0.0245
     23 H          -0.5459    1.8868   -0.8726 H       1  UNL1        0.0245
     24 H          -0.5289    1.8773    0.9072 H       1  UNL1        0.0245
     25 H           0.5123   -0.3556   -0.8948 H       1  UNL1        0.0459
     26 H           0.5293   -0.3651    0.8851 H       1  UNL1        0.0459
     27 H          -2.1181    0.1091    0.0229 H       1  UNL1        0.1487
     28 H          -3.5246   -2.0095    0.9150 H       1  UNL1        0.0361
     29 H          -3.5416   -2.0000   -0.8649 H       1  UNL1        0.0361
     30 H          -2.4835   -4.2424   -0.8870 H       1  UNL1        0.0318
     31 H          -2.4665   -4.2520    0.8928 H       1  UNL1        0.0318
     32 H          -4.5323   -4.4671    2.1539 H       1  UNL1        0.0621
     33 H          -6.8423   -5.3197    2.1714 H       1  UNL1        0.0637
     34 H         -10.2037   -3.0012   -1.0931 H       1  UNL1        0.0441
     35 H          -9.3994   -4.3128   -1.9881 H       1  UNL1        0.0441
     36 H         -11.3971   -5.7489   -1.6787 H       1  UNL1        0.0243
     37 H         -12.2013   -4.4373   -0.7837 H       1  UNL1        0.0243
     38 H         -11.8221   -4.2339   -2.5108 H       1  UNL1        0.0243
     39 H         -11.1202   -3.7220    1.2383 H       1  UNL1        0.0441
     40 H         -10.0554   -4.8474    2.1147 H       1  UNL1        0.0441
     41 H          -9.4997   -2.4922    2.6561 H       1  UNL1        0.0243
     42 H          -8.1528   -3.2874    1.8063 H       1  UNL1        0.0243
     43 H          -9.2177   -2.1620    0.9299 H       1  UNL1        0.0243
     44 H          -6.8771   -5.3128   -2.0934 H       1  UNL1        0.0637
     45 H          -4.5685   -4.4565   -2.1108 H       1  UNL1        0.0621
@<TRIPOS>BOND
     1     1     2    1
     2     1    22    1
     3     1    23    1
     4     1    24    1
     5     2     3    1
     6     2    25    1
     7     2    26    1
     8     3     4   am
     9     3    27    1
    10     4     5    2
    11     4     6    1
    12     6     7    1
    13     6    28    1
    14     6    29    1
    15     7     8    1
    16     7    30    1
    17     7    31    1
    18     8    21   ar
    19     8     9   ar
    20     9    10   ar
    21     9    32    1
    22    10    11   ar
    23    10    33    1
    24    11    12    1
    25    11    20   ar
    26    12    13    2
    27    12    14    2
    28    12    15    1
    29    15    16    1
    30    15    18    1
    31    16    17    1
    32    16    34    1
    33    16    35    1
    34    17    36    1
    35    17    37    1
    36    17    38    1
    37    18    19    1
    38    18    39    1
    39    18    40    1
    40    19    41    1
    41    19    42    1
    42    19    43    1
    43    20    21   ar
    44    20    44    1
    45    21    45    1
