@<TRIPOS>MOLECULE
ZINC000408602673
 60 62 0 0 0
SMALL
GASTEIGER

@<TRIPOS>ATOM
      1 C          -0.0187    1.5258    0.0104 C.3     1  UNL1       -0.0507
      2 C           0.0021   -0.0041    0.0020 C.3     1  UNL1        0.0177
      3 N          -1.3723   -0.5112    0.0124 N.3     1  UNL1       -0.1771
      4 C          -2.1099   -0.6542   -1.2453 C.3     1  UNL1        0.0177
      5 C          -1.7727   -2.0031   -1.8836 C.3     1  UNL1       -0.0507
      6 S          -2.0922   -0.9227    1.4458 S.O2    1  UNL1        0.0608
      7 O          -3.1196   -1.8512    1.1269 O.2     1  UNL1       -0.1528
      8 O          -1.0393   -1.2108    2.3555 O.2     1  UNL1       -0.1528
      9 C          -2.8978    0.5199    2.0580 C.ar    1  UNL1        0.1057
     10 C          -2.2144    1.3948    2.8821 C.ar    1  UNL1       -0.0319
     11 C          -2.8437    2.5265    3.3633 C.ar    1  UNL1       -0.0181
     12 C          -4.1624    2.7850    3.0187 C.ar    1  UNL1        0.1213
     13 O          -4.7836    3.8979    3.4905 O.3     1  UNL1       -0.4828
     14 C          -6.1417    4.0999    3.0945 C.3     1  UNL1        0.1652
     15 C          -6.6600    5.3744    3.7095 C.2     1  UNL1        0.2514
     16 O          -5.9375    6.0437    4.4172 O.2     1  UNL1       -0.2721
     17 N          -7.9264    5.7703    3.4731 N.am    1  UNL1       -0.3017
     18 C          -8.4302    7.0092    4.0709 C.3     1  UNL1        0.0737
     19 C          -9.5585    7.5498    3.2307 C.ar    1  UNL1       -0.0228
     20 C         -10.4917    6.6861    2.6885 C.ar    1  UNL1       -0.0565
     21 C         -11.5266    7.1820    1.9178 C.ar    1  UNL1       -0.0614
     22 C         -11.6286    8.5416    1.6898 C.ar    1  UNL1       -0.0617
     23 C         -10.6959    9.4054    2.2328 C.ar    1  UNL1       -0.0614
     24 C          -9.6634    8.9099    3.0070 C.ar    1  UNL1       -0.0565
     25 C          -8.9316    6.7272    5.4638 C.ar    1  UNL1       -0.0228
     26 C          -9.6303    5.5633    5.7244 C.ar    1  UNL1       -0.0565
     27 C         -10.0902    5.3046    7.0021 C.ar    1  UNL1       -0.0614
     28 C          -9.8510    6.2096    8.0192 C.ar    1  UNL1       -0.0617
     29 C          -9.1515    7.3731    7.7588 C.ar    1  UNL1       -0.0614
     30 C          -8.6879    7.6298    6.4820 C.ar    1  UNL1       -0.0565
     31 C          -4.8459    1.9058    2.1913 C.ar    1  UNL1       -0.0181
     32 C          -4.2105    0.7780    1.7088 C.ar    1  UNL1       -0.0319
     33 H           1.0039    1.9031    0.0027 H       1  UNL1        0.0243
     34 H          -0.5459    1.8868   -0.8726 H       1  UNL1        0.0243
     35 H          -0.5289    1.8773    0.9072 H       1  UNL1        0.0243
     36 H           0.5123   -0.3556   -0.8948 H       1  UNL1        0.0441
     37 H           0.5293   -0.3651    0.8851 H       1  UNL1        0.0441
     38 H          -3.1804   -0.6037   -1.0465 H       1  UNL1        0.0441
     39 H          -1.8283    0.1500   -1.9251 H       1  UNL1        0.0441
     40 H          -2.0544   -2.8073   -1.2038 H       1  UNL1        0.0243
     41 H          -2.3215   -2.1096   -2.8194 H       1  UNL1        0.0243
     42 H          -0.7022   -2.0536   -2.0825 H       1  UNL1        0.0243
     43 H          -1.1877    1.1931    3.1500 H       1  UNL1        0.0638
     44 H          -2.3096    3.2093    4.0075 H       1  UNL1        0.0655
     45 H          -6.1966    4.1721    2.0083 H       1  UNL1        0.0795
     46 H          -6.7479    3.2600    3.4339 H       1  UNL1        0.0795
     47 H          -8.5043    5.2349    2.9071 H       1  UNL1        0.1497
     48 H          -7.6264    7.7440    4.1159 H       1  UNL1        0.0599
     49 H         -10.4120    5.6239    2.8666 H       1  UNL1        0.0621
     50 H         -12.2553    6.5071    1.4936 H       1  UNL1        0.0618
     51 H         -12.4368    8.9289    1.0871 H       1  UNL1        0.0618
     52 H         -10.7754   10.4676    2.0544 H       1  UNL1        0.0618
     53 H          -8.9347    9.5847    3.4313 H       1  UNL1        0.0621
     54 H          -9.8172    4.8562    4.9297 H       1  UNL1        0.0621
     55 H         -10.6368    4.3956    7.2055 H       1  UNL1        0.0618
     56 H         -10.2110    6.0079    9.0173 H       1  UNL1        0.0618
     57 H          -8.9649    8.0804    8.5534 H       1  UNL1        0.0618
     58 H          -8.1413    8.5388    6.2786 H       1  UNL1        0.0621
     59 H          -5.8726    2.1046    1.9219 H       1  UNL1        0.0655
     60 H          -4.7420    0.0934    1.0644 H       1  UNL1        0.0638
@<TRIPOS>BOND
     1     1     2    1
     2     1    33    1
     3     1    34    1
     4     1    35    1
     5     2     3    1
     6     2    36    1
     7     2    37    1
     8     3     4    1
     9     6     3    1
    10     4     5    1
    11     4    38    1
    12     4    39    1
    13     5    40    1
    14     5    41    1
    15     5    42    1
    16     6     7    2
    17     6     8    2
    18     6     9    1
    19     9    32   ar
    20     9    10   ar
    21    10    11   ar
    22    10    43    1
    23    11    12   ar
    24    11    44    1
    25    12    13    1
    26    12    31   ar
    27    13    14    1
    28    14    15    1
    29    14    45    1
    30    14    46    1
    31    15    16    2
    32    15    17   am
    33    17    18    1
    34    17    47    1
    35    18    19    1
    36    18    25    1
    37    18    48    1
    38    19    24   ar
    39    19    20   ar
    40    20    21   ar
    41    20    49    1
    42    21    22   ar
    43    21    50    1
    44    22    23   ar
    45    22    51    1
    46    23    24   ar
    47    23    52    1
    48    24    53    1
    49    25    30   ar
    50    25    26   ar
    51    26    27   ar
    52    26    54    1
    53    27    28   ar
    54    27    55    1
    55    28    29   ar
    56    28    56    1
    57    29    30   ar
    58    29    57    1
    59    30    58    1
    60    31    32   ar
    61    31    59    1
    62    32    60    1
