@<TRIPOS>MOLECULE
ZINC000013098002
 43 44 0 0 0
SMALL
GASTEIGER

@<TRIPOS>ATOM
      1 C          -0.1856    1.4094   -0.3138 C.3     1  UNL1        0.0028
      2 N          -0.2338   -0.0544   -0.3473 N.am    1  UNL1       -0.3074
      3 C           0.9798   -0.8208   -0.6407 C.3     1  UNL1        0.0028
      4 C          -1.3947   -0.6960   -0.1082 C.2     1  UNL1        0.2183
      5 O          -2.3994   -0.0616    0.1347 O.2     1  UNL1       -0.2753
      6 C          -1.4443   -2.2018   -0.1427 C.3     1  UNL1        0.0382
      7 C          -0.4845   -2.7677    0.9064 C.3     1  UNL1       -0.0274
      8 C          -0.5118   -4.2982    0.8449 C.3     1  UNL1        0.0212
      9 N          -1.9014   -4.7526    0.9908 N.3     1  UNL1       -0.1765
     10 S          -2.3083   -5.8645    2.1486 S.O2    1  UNL1        0.0623
     11 O          -3.4014   -6.6067    1.6256 O.2     1  UNL1       -0.1528
     12 O          -1.0925   -6.4657    2.5724 O.2     1  UNL1       -0.1528
     13 C          -2.9309   -4.9711    3.5338 C.ar    1  UNL1        0.1242
     14 C          -4.2638   -5.0779    3.8828 C.ar    1  UNL1       -0.0223
     15 C          -4.7525   -4.3769    4.9697 C.ar    1  UNL1        0.0567
     16 C          -6.2061   -4.4939    5.3497 C.3     1  UNL1        0.4175
     17 F          -6.3683   -5.5490    6.2538 F       1  UNL1       -0.1659
     18 F          -6.6301   -3.3007    5.9445 F       1  UNL1       -0.1659
     19 F          -6.9693   -4.7404    4.2034 F       1  UNL1       -0.1659
     20 C          -3.9082   -3.5692    5.7081 C.ar    1  UNL1       -0.0486
     21 C          -2.5748   -3.4615    5.3601 C.ar    1  UNL1       -0.0410
     22 C          -2.0841   -4.1667    4.2759 C.ar    1  UNL1        0.0673
     23 CL         -0.4096   -4.0320    3.8381 Cl      1  UNL1       -0.0815
     24 C          -2.9231   -4.2014    0.0903 C.3     1  UNL1        0.0212
     25 C          -2.8688   -2.6721    0.1603 C.3     1  UNL1       -0.0274
     26 H           0.8289    1.7446   -0.5295 H       1  UNL1        0.0428
     27 H          -0.8682    1.8127   -1.0618 H       1  UNL1        0.0428
     28 H          -0.4815    1.7602    0.6749 H       1  UNL1        0.0428
     29 H           1.5040   -1.0411    0.2892 H       1  UNL1        0.0428
     30 H           0.7096   -1.7537   -1.1354 H       1  UNL1        0.0428
     31 H           1.6286   -0.2376   -1.2942 H       1  UNL1        0.0428
     32 H          -1.1488   -2.5523   -1.1316 H       1  UNL1        0.0395
     33 H           0.5262   -2.4134    0.7036 H       1  UNL1        0.0285
     34 H          -0.7940   -2.4379    1.8982 H       1  UNL1        0.0285
     35 H          -0.1169   -4.6324   -0.1145 H       1  UNL1        0.0444
     36 H           0.0933   -4.7072    1.6540 H       1  UNL1        0.0444
     37 H          -4.9239   -5.7089    3.3061 H       1  UNL1        0.0643
     38 H          -4.2906   -3.0218    6.5570 H       1  UNL1        0.0623
     39 H          -1.9152   -2.8303    5.9371 H       1  UNL1        0.0633
     40 H          -2.7249   -4.5278   -0.9306 H       1  UNL1        0.0444
     41 H          -3.9091   -4.5467    0.4015 H       1  UNL1        0.0444
     42 H          -3.1558   -2.3431    1.1591 H       1  UNL1        0.0285
     43 H          -3.5552   -2.2497   -0.5736 H       1  UNL1        0.0285
@<TRIPOS>BOND
     1     1     2    1
     2     1    26    1
     3     1    27    1
     4     1    28    1
     5     2     3    1
     6     2     4   am
     7     3    29    1
     8     3    30    1
     9     3    31    1
    10     4     5    2
    11     4     6    1
    12     6    25    1
    13     6     7    1
    14     6    32    1
    15     7     8    1
    16     7    33    1
    17     7    34    1
    18     8     9    1
    19     8    35    1
    20     8    36    1
    21    10     9    1
    22     9    24    1
    23    10    11    2
    24    10    12    2
    25    10    13    1
    26    13    22   ar
    27    13    14   ar
    28    14    15   ar
    29    14    37    1
    30    15    16    1
    31    15    20   ar
    32    16    17    1
    33    16    18    1
    34    16    19    1
    35    20    21   ar
    36    20    38    1
    37    21    22   ar
    38    21    39    1
    39    22    23    1
    40    24    25    1
    41    24    40    1
    42    24    41    1
    43    25    42    1
    44    25    43    1
