@<TRIPOS>MOLECULE
ZINC000012648724
 57 59 0 0 0
SMALL
GASTEIGER

@<TRIPOS>ATOM
      1 C          -0.0187    1.5258    0.0104 C.3     1  UNL1       -0.0612
      2 C           0.0021   -0.0041    0.0020 C.3     1  UNL1       -0.0292
      3 H           0.5122   -0.3561   -0.8946 H       1  UNL1        0.0311
      4 C          -1.4334   -0.5345    0.0145 C.3     1  UNL1       -0.0454
      5 C          -1.4142   -2.0642   -0.0270 C.3     1  UNL1       -0.0292
      6 H          -0.8906   -2.3972   -0.9231 H       1  UNL1        0.0311
      7 C          -2.8500   -2.5925   -0.0485 C.3     1  UNL1       -0.0612
      8 C          -0.6916   -2.5957    1.2148 C.3     1  UNL1        0.0231
      9 N           0.6392   -1.9773    1.2884 N.3     1  UNL1       -0.1761
     10 S           1.9987   -2.9138    1.4188 S.O2    1  UNL1        0.0609
     11 O           2.9971   -2.0919    2.0077 O.2     1  UNL1       -0.1528
     12 O           1.5812   -4.1514    1.9786 O.2     1  UNL1       -0.1528
     13 C           2.5472   -3.2678   -0.2178 C.ar    1  UNL1        0.1055
     14 C           2.0773   -4.3920   -0.8735 C.ar    1  UNL1       -0.0346
     15 C           2.5026   -4.6751   -2.1549 C.ar    1  UNL1       -0.0459
     16 C           3.4092   -3.8241   -2.7901 C.ar    1  UNL1        0.0591
     17 C           3.8687   -4.1207   -4.1624 C.2     1  UNL1        0.3396
     18 O           3.4577   -5.1066   -4.7408 O.2     1  UNL1       -0.2449
     19 O           4.7434   -3.2976   -4.7724 O.3     1  UNL1       -0.4531
     20 C           5.1511   -3.6511   -6.1205 C.3     1  UNL1        0.1550
     21 C           6.1244   -2.6229   -6.6368 C.2     1  UNL1        0.2003
     22 O           6.4430   -1.6848   -5.9377 O.2     1  UNL1       -0.2884
     23 C           6.6881   -2.7574   -7.9896 C.ar    1  UNL1        0.0214
     24 C           6.3187   -3.8347   -8.8010 C.ar    1  UNL1       -0.0511
     25 C           6.8514   -3.9537  -10.0674 C.ar    1  UNL1       -0.0606
     26 C           7.7496   -3.0108  -10.5356 C.ar    1  UNL1       -0.0501
     27 C           8.1202   -1.9415   -9.7385 C.ar    1  UNL1        0.0555
     28 C           9.0991   -0.9204  -10.2582 C.3     1  UNL1        0.4174
     29 F           9.4875   -1.2657  -11.5571 F       1  UNL1       -0.1659
     30 F           8.4939    0.3409  -10.2722 F       1  UNL1       -0.1659
     31 F          10.2246   -0.8884   -9.4279 F       1  UNL1       -0.1659
     32 C           7.5917   -1.8051   -8.4724 C.ar    1  UNL1       -0.0395
     33 C           3.8792   -2.6914   -2.1226 C.ar    1  UNL1       -0.0459
     34 C           3.4414   -2.4172   -0.8435 C.ar    1  UNL1       -0.0346
     35 C           0.7415   -0.5122    1.2437 C.3     1  UNL1        0.0231
     36 H           1.0039    1.9031    0.0027 H       1  UNL1        0.0233
     37 H          -0.5459    1.8868   -0.8726 H       1  UNL1        0.0233
     38 H          -0.5289    1.8773    0.9072 H       1  UNL1        0.0233
     39 H          -1.9355   -0.2021    0.9231 H       1  UNL1        0.0271
     40 H          -1.9686   -0.1542   -0.8556 H       1  UNL1        0.0271
     41 H          -3.3641   -2.2117   -0.9309 H       1  UNL1        0.0233
     42 H          -2.8358   -3.6820   -0.0780 H       1  UNL1        0.0233
     43 H          -3.3728   -2.2602    0.8483 H       1  UNL1        0.0233
     44 H          -1.2630   -2.3406    2.1072 H       1  UNL1        0.0446
     45 H          -0.5879   -3.6783    1.1418 H       1  UNL1        0.0446
     46 H           1.3764   -5.0495   -0.3809 H       1  UNL1        0.0637
     47 H           2.1353   -5.5531   -2.6655 H       1  UNL1        0.0626
     48 H           5.6288   -4.6308   -6.1105 H       1  UNL1        0.0782
     49 H           4.2755   -3.6804   -6.7689 H       1  UNL1        0.0782
     50 H           5.6184   -4.5717   -8.4367 H       1  UNL1        0.0625
     51 H           6.5672   -4.7852  -10.6953 H       1  UNL1        0.0618
     52 H           8.1639   -3.1099  -11.5281 H       1  UNL1        0.0623
     53 H           7.8815   -0.9702   -7.8518 H       1  UNL1        0.0630
     54 H           4.5806   -2.0291   -2.6082 H       1  UNL1        0.0626
     55 H           3.8041   -1.5415   -0.3260 H       1  UNL1        0.0637
     56 H           1.7904   -0.2207    1.1903 H       1  UNL1        0.0446
     57 H           0.2870   -0.0867    2.1384 H       1  UNL1        0.0446
@<TRIPOS>BOND
     1     1     2    1
     2     1    36    1
     3     1    37    1
     4     1    38    1
     5     2     3    1
     6     2    35    1
     7     2     4    1
     8     4     5    1
     9     4    39    1
    10     4    40    1
    11     5     6    1
    12     5     7    1
    13     5     8    1
    14     7    41    1
    15     7    42    1
    16     7    43    1
    17     8     9    1
    18     8    44    1
    19     8    45    1
    20    10     9    1
    21     9    35    1
    22    10    11    2
    23    10    12    2
    24    10    13    1
    25    13    34   ar
    26    13    14   ar
    27    14    15   ar
    28    14    46    1
    29    15    16   ar
    30    15    47    1
    31    16    17    1
    32    16    33   ar
    33    17    18    2
    34    17    19    1
    35    19    20    1
    36    20    21    1
    37    20    48    1
    38    20    49    1
    39    21    22    2
    40    21    23    1
    41    23    32   ar
    42    23    24   ar
    43    24    25   ar
    44    24    50    1
    45    25    26   ar
    46    25    51    1
    47    26    27   ar
    48    26    52    1
    49    27    28    1
    50    27    32   ar
    51    28    29    1
    52    28    30    1
    53    28    31    1
    54    32    53    1
    55    33    34   ar
    56    33    54    1
    57    34    55    1
    58    35    56    1
    59    35    57    1
