@<TRIPOS>MOLECULE
ZINC000001367848
 57 60 0 0 0
SMALL
GASTEIGER

@<TRIPOS>ATOM
      1 O          -0.2496    0.2341   -0.1702 O.2     1  UNL1       -0.2746
      2 C          -0.0991    1.4073    0.0980 C.2     1  UNL1        0.2274
      3 C           1.2676    2.0342   -0.0037 C.3     1  UNL1        0.0857
      4 C           2.3182    0.9539    0.0128 C.ar    1  UNL1       -0.0312
      5 C           2.3939    0.0475   -1.0281 C.ar    1  UNL1       -0.0575
      6 C           3.3577   -0.9434   -1.0131 C.ar    1  UNL1       -0.0615
      7 C           4.2460   -1.0276    0.0428 C.ar    1  UNL1       -0.0617
      8 C           4.1708   -0.1206    1.0833 C.ar    1  UNL1       -0.0615
      9 C           3.2098    0.8729    1.0661 C.ar    1  UNL1       -0.0575
     10 C           1.3684    2.8134   -1.2896 C.ar    1  UNL1       -0.0312
     11 C           1.9407    4.0717   -1.2922 C.ar    1  UNL1       -0.0575
     12 C           2.0332    4.7865   -2.4718 C.ar    1  UNL1       -0.0615
     13 C           1.5538    4.2428   -3.6488 C.ar    1  UNL1       -0.0617
     14 C           0.9823    2.9842   -3.6464 C.ar    1  UNL1       -0.0615
     15 C           0.8937    2.2676   -2.4676 C.ar    1  UNL1       -0.0575
     16 N          -1.1551    2.1517    0.4816 N.am    1  UNL1       -0.2982
     17 C          -1.0161    3.6014    0.6789 C.3     1  UNL1        0.0291
     18 C          -2.0567    4.3165   -0.1918 C.3     1  UNL1        0.0363
     19 N          -3.3680    3.6931    0.0362 N.3     1  UNL1       -0.1736
     20 S          -4.6657    4.6080    0.5065 S.O2    1  UNL1        0.0609
     21 O          -5.5661    3.7223    1.1578 O.2     1  UNL1       -0.1528
     22 O          -4.1335    5.7703    1.1270 O.2     1  UNL1       -0.1528
     23 C          -5.4776    5.1538   -0.9590 C.ar    1  UNL1        0.1055
     24 C          -5.1060    6.3461   -1.5518 C.ar    1  UNL1       -0.0348
     25 C          -5.7429    6.7743   -2.7015 C.ar    1  UNL1       -0.0483
     26 C          -6.7510    6.0100   -3.2587 C.ar    1  UNL1        0.0549
     27 C          -7.4457    6.4771   -4.5118 C.3     1  UNL1        0.4174
     28 F          -6.7702    5.9810   -5.6320 F       1  UNL1       -0.1659
     29 F          -8.7638    6.0083   -4.5167 F       1  UNL1       -0.1659
     30 F          -7.4480    7.8755   -4.5501 F       1  UNL1       -0.1659
     31 C          -7.1217    4.8171   -2.6667 C.ar    1  UNL1       -0.0483
     32 C          -6.4821    4.3870   -1.5191 C.ar    1  UNL1       -0.0348
     33 C          -3.5069    2.2434   -0.1610 C.3     1  UNL1        0.0363
     34 C          -2.4677    1.5292    0.7042 C.3     1  UNL1        0.0291
     35 H           1.4232    2.7053    0.8410 H       1  UNL1        0.0492
     36 H           1.6999    0.1133   -1.8530 H       1  UNL1        0.0621
     37 H           3.4164   -1.6520   -1.8260 H       1  UNL1        0.0618
     38 H           4.9985   -1.8022    0.0549 H       1  UNL1        0.0618
     39 H           4.8646   -0.1866    1.9083 H       1  UNL1        0.0618
     40 H           3.1511    1.5815    1.8790 H       1  UNL1        0.0621
     41 H           2.3153    4.4965   -0.3726 H       1  UNL1        0.0621
     42 H           2.4797    5.7699   -2.4737 H       1  UNL1        0.0618
     43 H           1.6254    4.8016   -4.5703 H       1  UNL1        0.0618
     44 H           0.6074    2.5596   -4.5659 H       1  UNL1        0.0618
     45 H           0.4472    1.2842   -2.4657 H       1  UNL1        0.0621
     46 H          -1.1862    3.8459    1.7274 H       1  UNL1        0.0478
     47 H          -0.0148    3.9162    0.3851 H       1  UNL1        0.0478
     48 H          -2.1003    5.3707    0.0817 H       1  UNL1        0.0459
     49 H          -1.7834    4.2196   -1.2425 H       1  UNL1        0.0459
     50 H          -4.3184    6.9431   -1.1164 H       1  UNL1        0.0637
     51 H          -5.4531    7.7061   -3.1642 H       1  UNL1        0.0624
     52 H          -7.9090    4.2198   -3.1022 H       1  UNL1        0.0624
     53 H          -6.7717    3.4550   -1.0566 H       1  UNL1        0.0637
     54 H          -4.5083    1.9286    0.1328 H       1  UNL1        0.0459
     55 H          -3.3368    1.9990   -1.2096 H       1  UNL1        0.0459
     56 H          -2.4252    0.4752    0.4297 H       1  UNL1        0.0478
     57 H          -2.7386    1.6254    1.7556 H       1  UNL1        0.0478
@<TRIPOS>BOND
     1     1     2    2
     2     2     3    1
     3     2    16   am
     4     3     4    1
     5     3    10    1
     6     3    35    1
     7     4     9   ar
     8     4     5   ar
     9     5     6   ar
    10     5    36    1
    11     6     7   ar
    12     6    37    1
    13     7     8   ar
    14     7    38    1
    15     8     9   ar
    16     8    39    1
    17     9    40    1
    18    10    15   ar
    19    10    11   ar
    20    11    12   ar
    21    11    41    1
    22    12    13   ar
    23    12    42    1
    24    13    14   ar
    25    13    43    1
    26    14    15   ar
    27    14    44    1
    28    15    45    1
    29    16    34    1
    30    16    17    1
    31    17    18    1
    32    17    46    1
    33    17    47    1
    34    18    19    1
    35    18    48    1
    36    18    49    1
    37    20    19    1
    38    19    33    1
    39    20    21    2
    40    20    22    2
    41    20    23    1
    42    23    32   ar
    43    23    24   ar
    44    24    25   ar
    45    24    50    1
    46    25    26   ar
    47    25    51    1
    48    26    27    1
    49    26    31   ar
    50    27    28    1
    51    27    29    1
    52    27    30    1
    53    31    32   ar
    54    31    52    1
    55    32    53    1
    56    33    34    1
    57    33    54    1
    58    33    55    1
    59    34    56    1
    60    34    57    1
