@<TRIPOS>MOLECULE
ZINC000012382586
 49 50 0 0 0
SMALL
GASTEIGER

@<TRIPOS>ATOM
      1 C          -0.0187    1.5258    0.0104 C.3     1  UNL1       -0.0469
      2 C           0.0021   -0.0041    0.0020 C.3     1  UNL1        0.0175
      3 C           0.7421   -0.5109    1.2415 C.3     1  UNL1       -0.0469
      4 N          -1.3723   -0.5112    0.0124 N.am    1  UNL1       -0.3119
      5 C          -1.6432   -1.7342   -0.4849 C.2     1  UNL1        0.2290
      6 O          -0.7491   -2.4150   -0.9410 O.2     1  UNL1       -0.2743
      7 C          -3.0570   -2.2558   -0.4742 C.3     1  UNL1        0.0968
      8 N          -3.0875   -3.5961   -1.0648 N.3     1  UNL1       -0.1675
      9 C          -2.7977   -4.7687   -0.2358 C.3     1  UNL1        0.0250
     10 C          -4.0740   -5.2150    0.4803 C.3     1  UNL1       -0.0132
     11 C          -3.7759   -6.4212    1.3331 C.ar    1  UNL1       -0.0461
     12 C          -3.8999   -7.6912    0.8015 C.ar    1  UNL1       -0.0585
     13 C          -3.6265   -8.7976    1.5837 C.ar    1  UNL1       -0.0615
     14 C          -3.2286   -8.6341    2.8975 C.ar    1  UNL1       -0.0617
     15 C          -3.1038   -7.3640    3.4288 C.ar    1  UNL1       -0.0615
     16 C          -3.3731   -6.2575    2.6453 C.ar    1  UNL1       -0.0585
     17 S          -3.4495   -3.7857   -2.6696 S.O2    1  UNL1        0.0613
     18 O          -3.9378   -5.1120   -2.8169 O.2     1  UNL1       -0.1528
     19 O          -4.1932   -2.6367   -3.0516 O.2     1  UNL1       -0.1528
     20 C          -1.9302   -3.7133   -3.5591 C.ar    1  UNL1        0.1056
     21 C          -1.4538   -2.4984   -4.0155 C.ar    1  UNL1       -0.0343
     22 C          -0.2619   -2.4411   -4.7128 C.ar    1  UNL1       -0.0459
     23 C           0.4544   -3.5996   -4.9541 C.ar    1  UNL1        0.0180
     24 BR          2.0855   -3.5217   -5.9077 Br      1  UNL1       -0.0503
     25 C          -0.0226   -4.8150   -4.4973 C.ar    1  UNL1       -0.0459
     26 C          -1.2120   -4.8706   -3.7955 C.ar    1  UNL1       -0.0343
     27 H           1.0039    1.9031    0.0027 H       1  UNL1        0.0247
     28 H          -0.5459    1.8868   -0.8726 H       1  UNL1        0.0247
     29 H          -0.5289    1.8773    0.9072 H       1  UNL1        0.0247
     30 H           0.5123   -0.3556   -0.8948 H       1  UNL1        0.0493
     31 H           0.2319   -0.1594    2.1383 H       1  UNL1        0.0247
     32 H           0.7568   -1.6008    1.2356 H       1  UNL1        0.0247
     33 H           1.7647   -0.1336    1.2338 H       1  UNL1        0.0247
     34 H          -2.0874    0.0333    0.3772 H       1  UNL1        0.1490
     35 H          -3.4190   -2.3030    0.5528 H       1  UNL1        0.0539
     36 H          -3.6948   -1.5886   -1.0540 H       1  UNL1        0.0539
     37 H          -2.4331   -5.5789   -0.8672 H       1  UNL1        0.0447
     38 H          -2.0374   -4.5130    0.5022 H       1  UNL1        0.0447
     39 H          -4.4386   -4.4047    1.1117 H       1  UNL1        0.0326
     40 H          -4.8342   -5.4707   -0.2578 H       1  UNL1        0.0326
     41 H          -4.2107   -7.8190   -0.2249 H       1  UNL1        0.0620
     42 H          -3.7240   -9.7899    1.1686 H       1  UNL1        0.0618
     43 H          -3.0157   -9.4985    3.5088 H       1  UNL1        0.0618
     44 H          -2.7934   -7.2362    4.4553 H       1  UNL1        0.0618
     45 H          -3.2756   -5.2652    3.0604 H       1  UNL1        0.0620
     46 H          -2.0133   -1.5940   -3.8273 H       1  UNL1        0.0637
     47 H           0.1100   -1.4920   -5.0696 H       1  UNL1        0.0629
     48 H           0.5363   -5.7197   -4.6855 H       1  UNL1        0.0629
     49 H          -1.5845   -5.8195   -3.4388 H       1  UNL1        0.0637
@<TRIPOS>BOND
     1     1     2    1
     2     1    27    1
     3     1    28    1
     4     1    29    1
     5     2     3    1
     6     2     4    1
     7     2    30    1
     8     3    31    1
     9     3    32    1
    10     3    33    1
    11     4     5   am
    12     4    34    1
    13     5     6    2
    14     5     7    1
    15     7     8    1
    16     7    35    1
    17     7    36    1
    18     8     9    1
    19    17     8    1
    20     9    10    1
    21     9    37    1
    22     9    38    1
    23    10    11    1
    24    10    39    1
    25    10    40    1
    26    11    16   ar
    27    11    12   ar
    28    12    13   ar
    29    12    41    1
    30    13    14   ar
    31    13    42    1
    32    14    15   ar
    33    14    43    1
    34    15    16   ar
    35    15    44    1
    36    16    45    1
    37    17    18    2
    38    17    19    2
    39    17    20    1
    40    20    26   ar
    41    20    21   ar
    42    21    22   ar
    43    21    46    1
    44    22    23   ar
    45    22    47    1
    46    23    24    1
    47    23    25   ar
    48    25    26   ar
    49    25    48    1
    50    26    49    1
