@<TRIPOS>MOLECULE
ZINC000020892835
 55 56 0 0 0
SMALL
GASTEIGER

@<TRIPOS>ATOM
      1 C          -0.0187    1.5258    0.0104 C.3     1  UNL1       -0.0507
      2 C           0.0021   -0.0041    0.0020 C.3     1  UNL1        0.0177
      3 N           0.6878   -0.4765   -1.2033 N.3     1  UNL1       -0.1771
      4 C           2.1478   -0.5966   -1.2159 C.3     1  UNL1        0.0177
      5 C           2.5532   -1.9514   -0.6319 C.3     1  UNL1       -0.0507
      6 S          -0.1875   -0.8749   -2.5515 S.O2    1  UNL1        0.0608
      7 O           0.6166   -1.7761   -3.3001 O.2     1  UNL1       -0.1528
      8 O          -1.4970   -1.1925   -2.1004 O.2     1  UNL1       -0.1528
      9 C          -0.3375    0.5853   -3.5262 C.ar    1  UNL1        0.1055
     10 C          -1.4057    1.4405   -3.3300 C.ar    1  UNL1       -0.0351
     11 C          -1.5234    2.5861   -4.0947 C.ar    1  UNL1       -0.0567
     12 C          -0.5727    2.8767   -5.0552 C.ar    1  UNL1       -0.0468
     13 C          -0.7013    4.1253   -5.8892 C.3     1  UNL1       -0.0194
     14 C           0.0204    5.2805   -5.1924 C.3     1  UNL1        0.0279
     15 C          -0.1082    6.5291   -6.0263 C.2     1  UNL1        0.2135
     16 O          -0.7171    6.4981   -7.0748 O.2     1  UNL1       -0.2758
     17 N           0.4534    7.6803   -5.6071 N.am    1  UNL1       -0.3124
     18 C           0.3284    8.8941   -6.4178 C.3     1  UNL1        0.0231
     19 C          -0.9938    9.5915   -6.0915 C.3     1  UNL1       -0.0345
     20 C          -1.1244   10.8591   -6.9382 C.3     1  UNL1       -0.0514
     21 C           0.0398   11.8021   -6.6275 C.3     1  UNL1       -0.0529
     22 C           1.3620   11.1048   -6.9538 C.3     1  UNL1       -0.0514
     23 C           1.4925    9.8371   -6.1071 C.3     1  UNL1       -0.0345
     24 C           0.4962    2.0221   -5.2504 C.ar    1  UNL1       -0.0567
     25 C           0.6160    0.8786   -4.4831 C.ar    1  UNL1       -0.0351
     26 H           1.0039    1.9031    0.0027 H       1  UNL1        0.0243
     27 H          -0.5459    1.8868   -0.8726 H       1  UNL1        0.0243
     28 H          -0.5289    1.8773    0.9072 H       1  UNL1        0.0243
     29 H           0.5293   -0.3651    0.8851 H       1  UNL1        0.0441
     30 H          -1.0205   -0.3814    0.0098 H       1  UNL1        0.0441
     31 H           2.5098   -0.5199   -2.2412 H       1  UNL1        0.0441
     32 H           2.5833    0.2026   -0.6162 H       1  UNL1        0.0441
     33 H           3.6395   -2.0407   -0.6413 H       1  UNL1        0.0243
     34 H           2.1912   -2.0280    0.3934 H       1  UNL1        0.0243
     35 H           2.1177   -2.7506   -1.2316 H       1  UNL1        0.0243
     36 H          -2.1485    1.2135   -2.5796 H       1  UNL1        0.0637
     37 H          -2.3583    3.2539   -3.9419 H       1  UNL1        0.0621
     38 H          -0.2543    3.9556   -6.8687 H       1  UNL1        0.0318
     39 H          -1.7555    4.3750   -6.0092 H       1  UNL1        0.0318
     40 H          -0.4267    5.4502   -4.2129 H       1  UNL1        0.0361
     41 H           1.0745    5.0308   -5.0723 H       1  UNL1        0.0361
     42 H           0.9404    7.7052   -4.7686 H       1  UNL1        0.1490
     43 H           0.3480    8.6287   -7.4748 H       1  UNL1        0.0498
     44 H          -1.8232    8.9197   -6.3129 H       1  UNL1        0.0283
     45 H          -1.0134    9.8569   -5.0345 H       1  UNL1        0.0283
     46 H          -1.1048   10.5937   -7.9952 H       1  UNL1        0.0266
     47 H          -2.0663   11.3559   -6.7057 H       1  UNL1        0.0266
     48 H          -0.0533   12.7052   -7.2307 H       1  UNL1        0.0265
     49 H           0.0202   12.0675   -5.5705 H       1  UNL1        0.0265
     50 H           1.3815   10.8393   -8.0108 H       1  UNL1        0.0266
     51 H           2.1913   11.7765   -6.7325 H       1  UNL1        0.0266
     52 H           1.4729   10.1025   -5.0501 H       1  UNL1        0.0283
     53 H           2.4345    9.3403   -6.3396 H       1  UNL1        0.0283
     54 H           1.2392    2.2494   -6.0006 H       1  UNL1        0.0621
     55 H           1.4511    0.2109   -4.6357 H       1  UNL1        0.0637
@<TRIPOS>BOND
     1     1     2    1
     2     1    26    1
     3     1    27    1
     4     1    28    1
     5     2     3    1
     6     2    29    1
     7     2    30    1
     8     3     4    1
     9     6     3    1
    10     4     5    1
    11     4    31    1
    12     4    32    1
    13     5    33    1
    14     5    34    1
    15     5    35    1
    16     6     7    2
    17     6     8    2
    18     6     9    1
    19     9    25   ar
    20     9    10   ar
    21    10    11   ar
    22    10    36    1
    23    11    12   ar
    24    11    37    1
    25    12    13    1
    26    12    24   ar
    27    13    14    1
    28    13    38    1
    29    13    39    1
    30    14    15    1
    31    14    40    1
    32    14    41    1
    33    15    16    2
    34    15    17   am
    35    17    18    1
    36    17    42    1
    37    18    23    1
    38    18    19    1
    39    18    43    1
    40    19    20    1
    41    19    44    1
    42    19    45    1
    43    20    21    1
    44    20    46    1
    45    20    47    1
    46    21    22    1
    47    21    48    1
    48    21    49    1
    49    22    23    1
    50    22    50    1
    51    22    51    1
    52    23    52    1
    53    23    53    1
    54    24    25   ar
    55    24    54    1
    56    25    55    1
