@<TRIPOS>MOLECULE
ZINC000002662332
 51 53 0 0 0
SMALL
GASTEIGER

@<TRIPOS>ATOM
      1 O           0.0021   -0.0041    0.0020 O.2     1  UNL1       -0.2743
      2 C          -0.0144    1.2086    0.0087 C.2     1  UNL1        0.2289
      3 C           1.2803    1.9798    0.0005 C.3     1  UNL1        0.0971
      4 N           2.4066    1.0431   -0.0153 N.3     1  UNL1       -0.1635
      5 C           2.8870    0.4965   -1.2868 C.3     1  UNL1        0.0460
      6 C           3.8656    1.4585   -1.9094 C.ar    1  UNL1       -0.0317
      7 C           3.4145    2.4470   -2.7641 C.ar    1  UNL1       -0.0573
      8 C           4.3122    3.3295   -3.3352 C.ar    1  UNL1       -0.0615
      9 C           5.6610    3.2238   -3.0514 C.ar    1  UNL1       -0.0617
     10 C           6.1120    2.2359   -2.1960 C.ar    1  UNL1       -0.0615
     11 C           5.2138    1.3561   -1.6216 C.ar    1  UNL1       -0.0573
     12 S           3.1367    0.6021    1.4041 S.O2    1  UNL1        0.0616
     13 O           4.4513    0.1819    1.0655 O.2     1  UNL1       -0.1528
     14 O           2.8687    1.6430    2.3335 O.2     1  UNL1       -0.1528
     15 C           2.2960   -0.8267    2.0012 C.ar    1  UNL1        0.1055
     16 C           1.2047   -0.6872    2.8382 C.ar    1  UNL1       -0.0353
     17 C           0.5451   -1.8081    3.3066 C.ar    1  UNL1       -0.0599
     18 C           0.9765   -3.0685    2.9376 C.ar    1  UNL1       -0.0616
     19 C           2.0672   -3.2080    2.0999 C.ar    1  UNL1       -0.0599
     20 C           2.7242   -2.0870    1.6280 C.ar    1  UNL1       -0.0353
     21 N          -1.1906    1.8666    0.0178 N.am    1  UNL1       -0.3117
     22 C          -2.4492    1.1169    0.0197 C.3     1  UNL1        0.0379
     23 C          -3.6255    2.0952    0.0306 C.3     1  UNL1        0.0742
     24 H          -3.5863    2.7429   -0.8452 H       1  UNL1        0.0611
     25 C          -4.9678    1.3220    0.0681 C.3     1  UNL1       -0.0231
     26 C          -5.9021    2.3843    0.7088 C.3     1  UNL1       -0.0271
     27 C          -4.9509    3.1125    1.6826 C.3     1  UNL1        0.0482
     28 O          -3.6093    2.8811    1.2330 O.3     1  UNL1       -0.3750
     29 H           1.3211    2.6120   -0.8866 H       1  UNL1        0.0539
     30 H           1.3381    2.6024    0.8933 H       1  UNL1        0.0539
     31 H           3.3803   -0.4590   -1.1083 H       1  UNL1        0.0493
     32 H           2.0432    0.3494   -1.9610 H       1  UNL1        0.0493
     33 H           2.3608    2.5295   -2.9858 H       1  UNL1        0.0621
     34 H           3.9599    4.1013   -4.0034 H       1  UNL1        0.0618
     35 H           6.3624    3.9129   -3.4981 H       1  UNL1        0.0618
     36 H           7.1658    2.1532   -1.9746 H       1  UNL1        0.0618
     37 H           5.5661    0.5843   -0.9533 H       1  UNL1        0.0621
     38 H           0.8677    0.2976    3.1264 H       1  UNL1        0.0637
     39 H          -0.3070   -1.6991    3.9611 H       1  UNL1        0.0618
     40 H           0.4616   -3.9442    3.3041 H       1  UNL1        0.0618
     41 H           2.4045   -4.1928    1.8119 H       1  UNL1        0.0618
     42 H           3.5763   -2.1960    0.9735 H       1  UNL1        0.0637
     43 H          -1.2037    2.8365    0.0232 H       1  UNL1        0.1488
     44 H          -2.5027    0.4944   -0.8734 H       1  UNL1        0.0487
     45 H          -2.4943    0.4847    0.9065 H       1  UNL1        0.0487
     46 H          -5.2996    1.0622   -0.9372 H       1  UNL1        0.0291
     47 H          -4.8926    0.4347    0.6966 H       1  UNL1        0.0291
     48 H          -6.2842    3.0710   -0.0465 H       1  UNL1        0.0288
     49 H          -6.7193    1.9066    1.2493 H       1  UNL1        0.0288
     50 H          -5.1624    4.1818    1.6758 H       1  UNL1        0.0560
     51 H          -5.0781    2.7157    2.6898 H       1  UNL1        0.0560
@<TRIPOS>BOND
     1     1     2    2
     2     2     3    1
     3     2    21   am
     4     3     4    1
     5     3    29    1
     6     3    30    1
     7     4     5    1
     8    12     4    1
     9     5     6    1
    10     5    31    1
    11     5    32    1
    12     6    11   ar
    13     6     7   ar
    14     7     8   ar
    15     7    33    1
    16     8     9   ar
    17     8    34    1
    18     9    10   ar
    19     9    35    1
    20    10    11   ar
    21    10    36    1
    22    11    37    1
    23    12    13    2
    24    12    14    2
    25    12    15    1
    26    15    20   ar
    27    15    16   ar
    28    16    17   ar
    29    16    38    1
    30    17    18   ar
    31    17    39    1
    32    18    19   ar
    33    18    40    1
    34    19    20   ar
    35    19    41    1
    36    20    42    1
    37    21    22    1
    38    21    43    1
    39    22    23    1
    40    22    44    1
    41    22    45    1
    42    23    24    1
    43    23    28    1
    44    23    25    1
    45    25    26    1
    46    25    46    1
    47    25    47    1
    48    26    27    1
    49    26    48    1
    50    26    49    1
    51    27    28    1
    52    27    50    1
    53    27    51    1
