@<TRIPOS>MOLECULE
ZINC000112511463
 42 43 0 0 0
SMALL
GASTEIGER

@<TRIPOS>ATOM
      1 C          -0.0187    1.5258    0.0104 C.3     1  UNL1       -0.0214
      2 C           0.0021   -0.0041    0.0020 C.3     1  UNL1       -0.0231
      3 H          -1.0205   -0.3814    0.0098 H       1  UNL1        0.0850
      4 N           0.6897   -0.4778   -1.2066 N.4     1  UNL1        0.2208
      5 H           1.6363   -0.1286   -1.2138 H       1  UNL1        0.1997
      6 H           0.7033   -1.4867   -1.2121 H       1  UNL1        0.1997
      7 H           0.2017   -0.1436   -2.0240 H       1  UNL1        0.1997
      8 C           0.7421   -0.5109    1.2415 C.3     1  UNL1        0.0161
      9 H           1.7648   -0.1339    1.2342 H       1  UNL1        0.0368
     10 C           0.0253   -0.0190    2.5011 C.3     1  UNL1       -0.0427
     11 C           0.7832   -0.4980    3.7413 C.3     1  UNL1       -0.0381
     12 C           0.8027   -2.0296    3.7631 C.3     1  UNL1        0.0205
     13 N           1.3584   -2.5136    2.4920 N.3     1  UNL1       -0.1761
     14 S           2.6335   -3.5702    2.4765 S.O2    1  UNL1        0.0609
     15 O           3.2693   -3.4133    1.2154 O.2     1  UNL1       -0.1528
     16 O           3.3102   -3.4007    3.7145 O.2     1  UNL1       -0.1528
     17 C           1.9615   -5.1989    2.4956 C.ar    1  UNL1        0.1055
     18 C           1.7122   -5.8296    3.7002 C.ar    1  UNL1       -0.0348
     19 C           1.1850   -7.1074    3.7152 C.ar    1  UNL1       -0.0483
     20 C           0.9067   -7.7543    2.5257 C.ar    1  UNL1        0.0549
     21 C           0.3324   -9.1475    2.5421 C.3     1  UNL1        0.4174
     22 F          -1.0647   -9.0758    2.5591 F       1  UNL1       -0.1659
     23 F           0.7501   -9.8375    1.3991 F       1  UNL1       -0.1659
     24 F           0.7786   -9.8224    3.6834 F       1  UNL1       -0.1659
     25 C           1.1547   -7.1230    1.3212 C.ar    1  UNL1       -0.0483
     26 C           1.6783   -5.8438    1.3062 C.ar    1  UNL1       -0.0348
     27 C           0.7618   -2.0427    1.2346 C.3     1  UNL1        0.0284
     28 H           1.0039    1.9031    0.0027 H       1  UNL1        0.0284
     29 H          -0.5459    1.8868   -0.8726 H       1  UNL1        0.0284
     30 H          -0.5289    1.8773    0.9072 H       1  UNL1        0.0284
     31 H          -0.0113    1.0703    2.4961 H       1  UNL1        0.0271
     32 H          -0.9896   -0.4162    2.5198 H       1  UNL1        0.0271
     33 H           1.8057   -0.1215    3.7108 H       1  UNL1        0.0278
     34 H           0.2854   -0.1277    4.6375 H       1  UNL1        0.0278
     35 H           1.4244   -2.3755    4.5889 H       1  UNL1        0.0444
     36 H          -0.2128   -2.4063    3.8849 H       1  UNL1        0.0444
     37 H           1.9296   -5.3242    4.6295 H       1  UNL1        0.0637
     38 H           0.9909   -7.6004    4.6563 H       1  UNL1        0.0624
     39 H           0.9369   -7.6283    0.3919 H       1  UNL1        0.0624
     40 H           1.8721   -5.3506    0.3651 H       1  UNL1        0.0637
     41 H          -0.2572   -2.4201    1.1498 H       1  UNL1        0.0449
     42 H           1.3563   -2.3974    0.3926 H       1  UNL1        0.0449
@<TRIPOS>UNITY_ATOM_ATTR
4 1
charge 1
@<TRIPOS>BOND
     1     1     2    1
     2     1    28    1
     3     1    29    1
     4     1    30    1
     5     2     3    1
     6     2     4    1
     7     2     8    1
     8     4     5    1
     9     4     6    1
    10     4     7    1
    11     8     9    1
    12     8    27    1
    13     8    10    1
    14    10    11    1
    15    10    31    1
    16    10    32    1
    17    11    12    1
    18    11    33    1
    19    11    34    1
    20    12    13    1
    21    12    35    1
    22    12    36    1
    23    14    13    1
    24    13    27    1
    25    14    15    2
    26    14    16    2
    27    14    17    1
    28    17    26   ar
    29    17    18   ar
    30    18    19   ar
    31    18    37    1
    32    19    20   ar
    33    19    38    1
    34    20    21    1
    35    20    25   ar
    36    21    22    1
    37    21    23    1
    38    21    24    1
    39    25    26   ar
    40    25    39    1
    41    26    40    1
    42    27    41    1
    43    27    42    1
