@<TRIPOS>MOLECULE
ZINC000408971394
 50 51 0 0 0
SMALL
GASTEIGER

@<TRIPOS>ATOM
      1 C          -0.0173    1.4248    0.0099 C.3     1  UNL1        0.0364
      2 O           0.0021   -0.0041    0.0020 O.3     1  UNL1       -0.3829
      3 C          -1.2953   -0.6030    0.0112 C.3     1  UNL1        0.0487
      4 C          -1.1538   -2.1264    0.0017 C.3     1  UNL1       -0.0139
      5 C          -2.5429   -2.7677    0.0115 C.3     1  UNL1        0.0137
      6 N          -2.4075   -4.2264    0.0023 N.am    1  UNL1       -0.3141
      7 C          -3.5073   -5.0054    0.0087 C.2     1  UNL1        0.2288
      8 O          -4.6092   -4.4987    0.0219 O.2     1  UNL1       -0.2743
      9 C          -3.3680   -6.5059   -0.0007 C.3     1  UNL1        0.0971
     10 N          -4.6980   -7.1199    0.0087 N.3     1  UNL1       -0.1635
     11 C          -5.4215   -7.3197   -1.2495 C.3     1  UNL1        0.0460
     12 C          -4.9853   -8.6176   -1.8791 C.ar    1  UNL1       -0.0316
     13 C          -3.9148   -8.6358   -2.7536 C.ar    1  UNL1       -0.0559
     14 C          -3.5143   -9.8258   -3.3313 C.ar    1  UNL1       -0.0431
     15 C          -4.1850  -10.9989   -3.0343 C.ar    1  UNL1        0.0410
     16 CL         -3.6822  -12.4941   -3.7591 Cl      1  UNL1       -0.0835
     17 C          -5.2563  -10.9800   -2.1589 C.ar    1  UNL1       -0.0431
     18 C          -5.6523   -9.7903   -1.5775 C.ar    1  UNL1       -0.0559
     19 S          -5.3838   -7.5881    1.4415 S.O2    1  UNL1        0.0616
     20 O          -6.2213   -8.6963    1.1423 O.2     1  UNL1       -0.1528
     21 O          -4.3286   -7.6455    2.3915 O.2     1  UNL1       -0.1528
     22 C          -6.4497   -6.2845    1.9601 C.ar    1  UNL1        0.1056
     23 C          -5.9596   -5.2670    2.7572 C.ar    1  UNL1       -0.0340
     24 C          -6.7953   -4.2441    3.1644 C.ar    1  UNL1       -0.0415
     25 C          -8.1226   -4.2388    2.7740 C.ar    1  UNL1        0.0411
     26 CL         -9.1727   -2.9541    3.2845 Cl      1  UNL1       -0.0835
     27 C          -8.6125   -5.2574    1.9762 C.ar    1  UNL1       -0.0415
     28 C          -7.7745   -6.2767    1.5650 C.ar    1  UNL1       -0.0340
     29 H           1.0053    1.8021    0.0021 H       1  UNL1        0.0523
     30 H          -0.5445    1.7859   -0.8732 H       1  UNL1        0.0523
     31 H          -0.5275    1.7763    0.9067 H       1  UNL1        0.0523
     32 H          -1.8320   -0.2936    0.9080 H       1  UNL1        0.0560
     33 H          -1.8490   -0.2840   -0.8718 H       1  UNL1        0.0560
     34 H          -0.6171   -2.4359   -0.8952 H       1  UNL1        0.0302
     35 H          -0.6001   -2.4454    0.8847 H       1  UNL1        0.0302
     36 H          -3.0796   -2.4582    0.9083 H       1  UNL1        0.0463
     37 H          -3.0966   -2.4487   -0.8716 H       1  UNL1        0.0463
     38 H          -1.5262   -4.6316   -0.0082 H       1  UNL1        0.1487
     39 H          -2.8312   -6.8153   -0.8975 H       1  UNL1        0.0539
     40 H          -2.8143   -6.8249    0.8823 H       1  UNL1        0.0539
     41 H          -6.4927   -7.3541   -1.0511 H       1  UNL1        0.0493
     42 H          -5.2040   -6.4953   -1.9285 H       1  UNL1        0.0493
     43 H          -3.3916   -7.7200   -2.9857 H       1  UNL1        0.0621
     44 H          -2.6782   -9.8399   -4.0148 H       1  UNL1        0.0632
     45 H          -5.7804  -11.8954   -1.9269 H       1  UNL1        0.0632
     46 H          -6.4883   -9.7755   -0.8939 H       1  UNL1        0.0621
     47 H          -4.9236   -5.2714    3.0622 H       1  UNL1        0.0637
     48 H          -6.4124   -3.4494    3.7874 H       1  UNL1        0.0633
     49 H          -9.6486   -5.2539    1.6714 H       1  UNL1        0.0633
     50 H          -8.1567   -7.0717    0.9420 H       1  UNL1        0.0637
@<TRIPOS>BOND
     1     1     2    1
     2     1    29    1
     3     1    30    1
     4     1    31    1
     5     2     3    1
     6     3     4    1
     7     3    32    1
     8     3    33    1
     9     4     5    1
    10     4    34    1
    11     4    35    1
    12     5     6    1
    13     5    36    1
    14     5    37    1
    15     6     7   am
    16     6    38    1
    17     7     8    2
    18     7     9    1
    19     9    10    1
    20     9    39    1
    21     9    40    1
    22    10    11    1
    23    19    10    1
    24    11    12    1
    25    11    41    1
    26    11    42    1
    27    12    18   ar
    28    12    13   ar
    29    13    14   ar
    30    13    43    1
    31    14    15   ar
    32    14    44    1
    33    15    16    1
    34    15    17   ar
    35    17    18   ar
    36    17    45    1
    37    18    46    1
    38    19    20    2
    39    19    21    2
    40    19    22    1
    41    22    28   ar
    42    22    23   ar
    43    23    24   ar
    44    23    47    1
    45    24    25   ar
    46    24    48    1
    47    25    26    1
    48    25    27   ar
    49    27    28   ar
    50    27    49    1
    51    28    50    1
