@<TRIPOS>MOLECULE
ZINC000408603647
 66 68 0 0 0
SMALL
GASTEIGER

@<TRIPOS>ATOM
      1 C          -9.0402   -6.0417    4.2274 C.3     1  UNL1        0.0788
      2 O          -9.2610   -4.7556    3.6448 O.3     1  UNL1       -0.4948
      3 C          -8.3028   -4.2872    2.8026 C.ar    1  UNL1        0.1231
      4 C          -7.1763   -5.0520    2.5378 C.ar    1  UNL1       -0.0178
      5 C          -6.2038   -4.5737    1.6807 C.ar    1  UNL1       -0.0319
      6 C          -6.3526   -3.3338    1.0876 C.ar    1  UNL1        0.1060
      7 S          -5.1103   -2.7265   -0.0044 S.O2    1  UNL1        0.0616
      8 O          -5.1484   -1.3093    0.0930 O.2     1  UNL1       -0.1528
      9 O          -3.9411   -3.4921    0.2525 O.2     1  UNL1       -0.1528
     10 N          -5.5860   -3.1022   -1.5454 N.3     1  UNL1       -0.1635
     11 C          -5.2904   -4.4250   -2.1013 C.3     1  UNL1        0.0971
     12 C          -6.4771   -5.3316   -1.8991 C.2     1  UNL1        0.2290
     13 O          -7.4719   -4.9139   -1.3452 O.2     1  UNL1       -0.2743
     14 N          -6.4329   -6.6066   -2.3338 N.am    1  UNL1       -0.3116
     15 C          -7.5865   -7.4879   -2.1372 C.3     1  UNL1        0.0206
     16 H          -8.5057   -6.9094   -2.2302 H       1  UNL1        0.0495
     17 C          -7.5175   -8.1152   -0.7434 C.3     1  UNL1       -0.0466
     18 C          -7.5702   -8.5930   -3.1952 C.3     1  UNL1       -0.0308
     19 C          -7.7646   -7.9750   -4.5813 C.3     1  UNL1       -0.0260
     20 C          -7.7485   -9.0635   -5.6234 C.ar    1  UNL1       -0.0473
     21 C          -6.5548   -9.4428   -6.2083 C.ar    1  UNL1       -0.0586
     22 C          -6.5401  -10.4413   -7.1642 C.ar    1  UNL1       -0.0615
     23 C          -7.7190  -11.0607   -7.5348 C.ar    1  UNL1       -0.0617
     24 C          -8.9126  -10.6820   -6.9493 C.ar    1  UNL1       -0.0615
     25 C          -8.9267   -9.6865   -5.9903 C.ar    1  UNL1       -0.0586
     26 C          -6.3025   -2.1118   -2.3529 C.3     1  UNL1        0.0460
     27 C          -5.3245   -1.3823   -3.2373 C.ar    1  UNL1       -0.0317
     28 C          -4.7921   -0.1736   -2.8293 C.ar    1  UNL1       -0.0573
     29 C          -3.8950    0.4956   -3.6406 C.ar    1  UNL1       -0.0615
     30 C          -3.5299   -0.0441   -4.8598 C.ar    1  UNL1       -0.0617
     31 C          -4.0616   -1.2533   -5.2674 C.ar    1  UNL1       -0.0615
     32 C          -4.9555   -1.9245   -4.4542 C.ar    1  UNL1       -0.0573
     33 C          -7.4750   -2.5696    1.3497 C.ar    1  UNL1       -0.0290
     34 C          -8.4525   -3.0456    2.2016 C.ar    1  UNL1       -0.0070
     35 C          -9.6756   -2.2124    2.4863 C.3     1  UNL1       -0.0362
     36 H          -9.8782   -6.2950    4.8769 H       1  UNL1        0.0660
     37 H          -8.9538   -6.7882    3.4379 H       1  UNL1        0.0660
     38 H          -8.1204   -6.0228    4.8118 H       1  UNL1        0.0660
     39 H          -7.0593   -6.0204    3.0014 H       1  UNL1        0.0655
     40 H          -5.3265   -5.1688    1.4742 H       1  UNL1        0.0638
     41 H          -5.0810   -4.3328   -3.1671 H       1  UNL1        0.0539
     42 H          -4.4213   -4.8458   -1.5955 H       1  UNL1        0.0539
     43 H          -5.6373   -6.9407   -2.7768 H       1  UNL1        0.1490
     44 H          -6.5983   -8.6936   -0.6505 H       1  UNL1        0.0247
     45 H          -7.5291   -7.3279    0.0103 H       1  UNL1        0.0247
     46 H          -8.3758   -8.7709   -0.5971 H       1  UNL1        0.0247
     47 H          -6.6139   -9.1148   -3.1609 H       1  UNL1        0.0286
     48 H          -8.3766   -9.2988   -2.9958 H       1  UNL1        0.0286
     49 H          -8.7210   -7.4532   -4.6156 H       1  UNL1        0.0314
     50 H          -6.9582   -7.2691   -4.7807 H       1  UNL1        0.0314
     51 H          -5.6338   -8.9589   -5.9186 H       1  UNL1        0.0620
     52 H          -5.6076  -10.7372   -7.6216 H       1  UNL1        0.0618
     53 H          -7.7076  -11.8403   -8.2822 H       1  UNL1        0.0618
     54 H          -9.8337  -11.1657   -7.2392 H       1  UNL1        0.0618
     55 H          -9.8592   -9.3906   -5.5328 H       1  UNL1        0.0620
     56 H          -7.0455   -2.6158   -2.9710 H       1  UNL1        0.0493
     57 H          -6.8001   -1.3986   -1.6957 H       1  UNL1        0.0493
     58 H          -5.0774    0.2481   -1.8768 H       1  UNL1        0.0621
     59 H          -3.4796    1.4403   -3.3221 H       1  UNL1        0.0618
     60 H          -2.8296    0.4791   -5.4939 H       1  UNL1        0.0618
     61 H          -3.7766   -1.6748   -6.2200 H       1  UNL1        0.0618
     62 H          -5.3709   -2.8692   -4.7726 H       1  UNL1        0.0621
     63 H          -7.5890   -1.6015    0.8848 H       1  UNL1        0.0641
     64 H         -10.4524   -2.4471    1.7586 H       1  UNL1        0.0279
     65 H         -10.0395   -2.4324    3.4899 H       1  UNL1        0.0279
     66 H          -9.4195   -1.1553    2.4162 H       1  UNL1        0.0279
@<TRIPOS>BOND
     1     1     2    1
     2     1    36    1
     3     1    37    1
     4     1    38    1
     5     2     3    1
     6     3    34   ar
     7     3     4   ar
     8     4     5   ar
     9     4    39    1
    10     5     6   ar
    11     5    40    1
    12     6     7    1
    13     6    33   ar
    14     7     8    2
    15     7     9    2
    16     7    10    1
    17    10    11    1
    18    10    26    1
    19    11    12    1
    20    11    41    1
    21    11    42    1
    22    12    13    2
    23    12    14   am
    24    14    15    1
    25    14    43    1
    26    15    16    1
    27    15    17    1
    28    15    18    1
    29    17    44    1
    30    17    45    1
    31    17    46    1
    32    18    19    1
    33    18    47    1
    34    18    48    1
    35    19    20    1
    36    19    49    1
    37    19    50    1
    38    20    25   ar
    39    20    21   ar
    40    21    22   ar
    41    21    51    1
    42    22    23   ar
    43    22    52    1
    44    23    24   ar
    45    23    53    1
    46    24    25   ar
    47    24    54    1
    48    25    55    1
    49    26    27    1
    50    26    56    1
    51    26    57    1
    52    27    32   ar
    53    27    28   ar
    54    28    29   ar
    55    28    58    1
    56    29    30   ar
    57    29    59    1
    58    30    31   ar
    59    30    60    1
    60    31    32   ar
    61    31    61    1
    62    32    62    1
    63    33    34   ar
    64    33    63    1
    65    34    35    1
    66    35    64    1
    67    35    65    1
    68    35    66    1
