@<TRIPOS>MOLECULE
ZINC000001703577
 53 54 0 0 0
SMALL
GASTEIGER

@<TRIPOS>ATOM
      1 C          -0.0592    1.5402    0.0344 C.3     1  UNL1       -0.0641
      2 C          -0.0293    0.0106    0.0196 C.3     1  UNL1       -0.0414
      3 C           0.6875   -0.4733   -1.2426 C.3     1  UNL1        0.0203
      4 N           0.7161   -1.9379   -1.2568 N.3     1  UNL1       -0.1766
      5 C          -0.4253   -2.6877   -1.7872 C.3     1  UNL1        0.0203
      6 C          -0.2898   -2.8165   -3.3057 C.3     1  UNL1       -0.0414
      7 C          -1.4818   -3.5996   -3.8596 C.3     1  UNL1       -0.0641
      8 S           2.0386   -2.7460   -0.6734 S.O2    1  UNL1        0.0609
      9 O           2.0354   -4.0232   -1.2962 O.2     1  UNL1       -0.1528
     10 O           3.1315   -1.8419   -0.7598 O.2     1  UNL1       -0.1528
     11 C           1.7614   -3.0289    1.0435 C.ar    1  UNL1        0.1056
     12 C           2.1734   -2.0913    1.9726 C.ar    1  UNL1       -0.0336
     13 C           1.9580   -2.3103    3.3191 C.ar    1  UNL1       -0.0385
     14 C           1.3266   -3.4734    3.7395 C.ar    1  UNL1        0.0366
     15 N           1.1065   -3.6982    5.1033 N.am    1  UNL1       -0.2512
     16 C           2.0104   -3.2774    6.0101 C.2     1  UNL1        0.4048
     17 O           2.9742   -2.6298    5.6519 O.2     1  UNL1       -0.2261
     18 O           1.8455   -3.5746    7.3130 O.3     1  UNL1       -0.4469
     19 C           2.8581   -3.0888    8.2332 C.3     1  UNL1        0.1047
     20 C           2.4192   -1.7425    8.8608 C.3     1  UNL1       -0.0156
     21 C           3.2358   -1.6962   10.1762 C.3     1  UNL1       -0.0496
     22 C           3.2340   -3.1563   10.6741 C.3     1  UNL1       -0.0496
     23 C           2.9939   -4.0417    9.4388 C.3     1  UNL1       -0.0156
     24 C           0.9137   -4.4129    2.8040 C.ar    1  UNL1       -0.0385
     25 C           1.1274   -4.1856    1.4586 C.ar    1  UNL1       -0.0336
     26 H           0.9612    1.9236    0.0264 H       1  UNL1        0.0230
     27 H          -0.5901    1.9018   -0.8462 H       1  UNL1        0.0230
     28 H          -0.5698    1.8849    0.9336 H       1  UNL1        0.0230
     29 H           0.5017   -0.3510    0.9001 H       1  UNL1        0.0275
     30 H          -1.0496   -0.3728    0.0276 H       1  UNL1        0.0275
     31 H           0.1565   -0.1117   -2.1232 H       1  UNL1        0.0444
     32 H           1.7078   -0.0899   -1.2506 H       1  UNL1        0.0444
     33 H          -0.4475   -3.6810   -1.3389 H       1  UNL1        0.0444
     34 H          -1.3490   -2.1606   -1.5482 H       1  UNL1        0.0444
     35 H          -0.2676   -1.8232   -3.7540 H       1  UNL1        0.0275
     36 H           0.6339   -3.3436   -3.5446 H       1  UNL1        0.0275
     37 H          -1.3852   -3.6913   -4.9414 H       1  UNL1        0.0230
     38 H          -1.5039   -4.5928   -3.4113 H       1  UNL1        0.0230
     39 H          -2.4054   -3.0724   -3.6207 H       1  UNL1        0.0230
     40 H           2.6644   -1.1868    1.6449 H       1  UNL1        0.0638
     41 H           2.2806   -1.5779    4.0443 H       1  UNL1        0.0637
     42 H           0.3033   -4.1568    5.3958 H       1  UNL1        0.1582
     43 H           3.8152   -2.9802    7.7231 H       1  UNL1        0.0734
     44 H           2.6855   -0.9086    8.2114 H       1  UNL1        0.0301
     45 H           1.3495   -1.7443    9.0701 H       1  UNL1        0.0301
     46 H           4.2544   -1.3609    9.9812 H       1  UNL1        0.0266
     47 H           2.7512   -1.0446   10.9033 H       1  UNL1        0.0266
     48 H           4.1963   -3.3981   11.1254 H       1  UNL1        0.0266
     49 H           2.4336   -3.3024   11.3995 H       1  UNL1        0.0266
     50 H           2.0770   -4.6176    9.5646 H       1  UNL1        0.0301
     51 H           3.8396   -4.7132    9.2906 H       1  UNL1        0.0301
     52 H           0.4224   -5.3185    3.1279 H       1  UNL1        0.0637
     53 H           0.8061   -4.9157    0.7304 H       1  UNL1        0.0638
@<TRIPOS>BOND
     1     1     2    1
     2     1    26    1
     3     1    27    1
     4     1    28    1
     5     2     3    1
     6     2    29    1
     7     2    30    1
     8     3     4    1
     9     3    31    1
    10     3    32    1
    11     4     5    1
    12     8     4    1
    13     5     6    1
    14     5    33    1
    15     5    34    1
    16     6     7    1
    17     6    35    1
    18     6    36    1
    19     7    37    1
    20     7    38    1
    21     7    39    1
    22     8     9    2
    23     8    10    2
    24     8    11    1
    25    11    25   ar
    26    11    12   ar
    27    12    13   ar
    28    12    40    1
    29    13    14   ar
    30    13    41    1
    31    14    15    1
    32    14    24   ar
    33    15    16   am
    34    15    42    1
    35    16    17    2
    36    16    18    1
    37    18    19    1
    38    19    23    1
    39    19    20    1
    40    19    43    1
    41    20    21    1
    42    20    44    1
    43    20    45    1
    44    21    22    1
    45    21    46    1
    46    21    47    1
    47    22    23    1
    48    22    48    1
    49    22    49    1
    50    23    50    1
    51    23    51    1
    52    24    25   ar
    53    24    52    1
    54    25    53    1
