@<TRIPOS>MOLECULE
ZINC000408610988
 62 64 0 0 0
SMALL
GASTEIGER

@<TRIPOS>ATOM
      1 C          -0.0187    1.5258    0.0104 C.3     1  UNL1       -0.0466
      2 C           0.0021   -0.0041    0.0020 C.3     1  UNL1        0.0206
      3 H          -1.0205   -0.3814    0.0098 H       1  UNL1        0.0495
      4 C           0.7182   -0.4975   -1.2568 C.3     1  UNL1       -0.0308
      5 C           0.6303   -2.0233   -1.3286 C.3     1  UNL1       -0.0260
      6 C           1.3357   -2.5093   -2.5685 C.ar    1  UNL1       -0.0473
      7 C           0.6379   -2.6389   -3.7547 C.ar    1  UNL1       -0.0586
      8 C           1.2849   -3.0847   -4.8920 C.ar    1  UNL1       -0.0615
      9 C           2.6299   -3.4004   -4.8432 C.ar    1  UNL1       -0.0617
     10 C           3.3279   -3.2700   -3.6572 C.ar    1  UNL1       -0.0615
     11 C           2.6818   -2.8201   -2.5209 C.ar    1  UNL1       -0.0586
     12 N           0.7106   -0.4894    1.1889 N.am    1  UNL1       -0.3116
     13 C           0.0512   -0.6335    2.3554 C.2     1  UNL1        0.2290
     14 O          -1.1288   -0.3614    2.4226 O.2     1  UNL1       -0.2743
     15 C           0.7801   -1.1327    3.5763 C.3     1  UNL1        0.0968
     16 N          -0.1498   -1.2008    4.7064 N.3     1  UNL1       -0.1675
     17 C          -0.9883   -2.3873    4.8945 C.3     1  UNL1        0.0250
     18 C          -0.2029   -3.4497    5.6662 C.3     1  UNL1       -0.0132
     19 C          -1.0655   -4.6702    5.8597 C.ar    1  UNL1       -0.0461
     20 C          -1.8707   -4.7771    6.9782 C.ar    1  UNL1       -0.0585
     21 C          -2.6619   -5.8966    7.1557 C.ar    1  UNL1       -0.0615
     22 C          -2.6482   -6.9090    6.2145 C.ar    1  UNL1       -0.0617
     23 C          -1.8437   -6.8016    5.0956 C.ar    1  UNL1       -0.0615
     24 C          -1.0557   -5.6802    4.9159 C.ar    1  UNL1       -0.0585
     25 S          -0.2530    0.0634    5.7711 S.O2    1  UNL1        0.0613
     26 O          -0.6138   -0.4973    7.0259 O.2     1  UNL1       -0.1528
     27 O           0.9161    0.8475    5.5775 O.2     1  UNL1       -0.1528
     28 C          -1.6123    1.0631    5.2635 C.ar    1  UNL1        0.1056
     29 C          -1.4134    2.0957    4.3663 C.ar    1  UNL1       -0.0340
     30 C          -2.4793    2.8803    3.9677 C.ar    1  UNL1       -0.0415
     31 C          -3.7454    2.6319    4.4670 C.ar    1  UNL1        0.0411
     32 CL         -5.0848    3.6164    3.9665 Cl      1  UNL1       -0.0835
     33 C          -3.9439    1.5982    5.3650 C.ar    1  UNL1       -0.0415
     34 C          -2.8782    0.8108    5.7584 C.ar    1  UNL1       -0.0340
     35 H           1.0039    1.9031    0.0027 H       1  UNL1        0.0247
     36 H          -0.5459    1.8868   -0.8726 H       1  UNL1        0.0247
     37 H          -0.5289    1.8773    0.9072 H       1  UNL1        0.0247
     38 H           0.2444   -0.0644   -2.1377 H       1  UNL1        0.0286
     39 H           1.7648   -0.1951   -1.2215 H       1  UNL1        0.0286
     40 H           1.1041   -2.4564   -0.4477 H       1  UNL1        0.0314
     41 H          -0.4163   -2.3257   -1.3639 H       1  UNL1        0.0314
     42 H          -0.4128   -2.3922   -3.7929 H       1  UNL1        0.0620
     43 H           0.7396   -3.1866   -5.8187 H       1  UNL1        0.0618
     44 H           3.1352   -3.7494   -5.7316 H       1  UNL1        0.0618
     45 H           4.3785   -3.5170   -3.6190 H       1  UNL1        0.0618
     46 H           3.2272   -2.7181   -1.5943 H       1  UNL1        0.0620
     47 H           1.6544   -0.7070    1.1351 H       1  UNL1        0.1490
     48 H           1.1839   -2.1254    3.3778 H       1  UNL1        0.0539
     49 H           1.5952   -0.4503    3.8172 H       1  UNL1        0.0539
     50 H          -1.8814   -2.1155    5.4572 H       1  UNL1        0.0447
     51 H          -1.2786   -2.7849    3.9221 H       1  UNL1        0.0447
     52 H           0.6902   -3.7214    5.1034 H       1  UNL1        0.0326
     53 H           0.0874   -3.0520    6.6386 H       1  UNL1        0.0326
     54 H          -1.8815   -3.9862    7.7135 H       1  UNL1        0.0620
     55 H          -3.2905   -5.9805    8.0299 H       1  UNL1        0.0618
     56 H          -3.2659   -7.7840    6.3536 H       1  UNL1        0.0618
     57 H          -1.8327   -7.5927    4.3605 H       1  UNL1        0.0618
     58 H          -0.4271   -5.5963    4.0417 H       1  UNL1        0.0620
     59 H          -0.4249    2.2898    3.9769 H       1  UNL1        0.0637
     60 H          -2.3237    3.6872    3.2670 H       1  UNL1        0.0633
     61 H          -4.9320    1.4040    5.7553 H       1  UNL1        0.0633
     62 H          -3.0330    0.0037    6.4591 H       1  UNL1        0.0637
@<TRIPOS>BOND
     1     1     2    1
     2     1    35    1
     3     1    36    1
     4     1    37    1
     5     2     3    1
     6     2     4    1
     7     2    12    1
     8     4     5    1
     9     4    38    1
    10     4    39    1
    11     5     6    1
    12     5    40    1
    13     5    41    1
    14     6    11   ar
    15     6     7   ar
    16     7     8   ar
    17     7    42    1
    18     8     9   ar
    19     8    43    1
    20     9    10   ar
    21     9    44    1
    22    10    11   ar
    23    10    45    1
    24    11    46    1
    25    12    13   am
    26    12    47    1
    27    13    14    2
    28    13    15    1
    29    15    16    1
    30    15    48    1
    31    15    49    1
    32    16    17    1
    33    25    16    1
    34    17    18    1
    35    17    50    1
    36    17    51    1
    37    18    19    1
    38    18    52    1
    39    18    53    1
    40    19    24   ar
    41    19    20   ar
    42    20    21   ar
    43    20    54    1
    44    21    22   ar
    45    21    55    1
    46    22    23   ar
    47    22    56    1
    48    23    24   ar
    49    23    57    1
    50    24    58    1
    51    25    26    2
    52    25    27    2
    53    25    28    1
    54    28    34   ar
    55    28    29   ar
    56    29    30   ar
    57    29    59    1
    58    30    31   ar
    59    30    60    1
    60    31    32    1
    61    31    33   ar
    62    33    34   ar
    63    33    61    1
    64    34    62    1
