@<TRIPOS>MOLECULE
ZINC000012747675
 66 70 0 0 0
SMALL
GASTEIGER

@<TRIPOS>ATOM
      1 C           0.5365    1.3925    0.3260 C.3     1  UNL1       -0.0409
      2 C           0.0021   -0.0041    0.0020 C.3     1  UNL1        0.0845
      3 H          -1.0737    0.0484   -0.1656 H       1  UNL1        0.0556
      4 C           0.6791   -0.5255   -1.2393 C.2     1  UNL1        0.2304
      5 O           1.6970   -1.1782   -1.1462 O.2     1  UNL1       -0.2741
      6 N           0.1533   -0.2664   -2.4530 N.am    1  UNL1       -0.3085
      7 C           0.8115   -0.7733   -3.6597 C.3     1  UNL1        0.0354
      8 C           0.8748   -2.3009   -3.6027 C.3     1  UNL1       -0.0287
      9 C           1.5621   -2.8303   -4.8629 C.3     1  UNL1       -0.0386
     10 C           2.9809   -2.2638   -4.9462 C.3     1  UNL1       -0.0472
     11 C           2.9177   -0.7362   -5.0032 C.3     1  UNL1       -0.0386
     12 C           2.1229   -0.3044   -6.2372 C.3     1  UNL1       -0.0472
     13 C           0.7041   -0.8708   -6.1539 C.3     1  UNL1       -0.0386
     14 C           0.7673   -2.3984   -6.0969 C.3     1  UNL1       -0.0472
     15 C           0.0167   -0.3415   -4.8937 C.3     1  UNL1       -0.0287
     16 C           2.2303   -0.2068   -3.7429 C.3     1  UNL1       -0.0287
     17 N           0.2789   -0.9074    1.1269 N.3     1  UNL1       -0.2892
     18 C           1.6755   -0.7883    1.5664 C.3     1  UNL1        0.0141
     19 C           1.8759   -1.6052    2.8473 C.3     1  UNL1        0.0333
     20 N           1.4166   -2.9806    2.6009 N.3     1  UNL1       -0.1741
     21 S           2.3841   -4.2764    2.9571 S.O2    1  UNL1        0.0609
     22 O           1.9379   -5.3478    2.1371 O.2     1  UNL1       -0.1528
     23 O           3.7208   -3.7942    2.9465 O.2     1  UNL1       -0.1528
     24 C           2.0374   -4.7448    4.6199 C.ar    1  UNL1        0.1055
     25 C           2.7514   -4.1802    5.6602 C.ar    1  UNL1       -0.0348
     26 C           2.4794   -4.5477    6.9648 C.ar    1  UNL1       -0.0483
     27 C           1.4930   -5.4794    7.2291 C.ar    1  UNL1        0.0549
     28 C           1.1968   -5.8803    8.6512 C.3     1  UNL1        0.4174
     29 F           0.2138   -5.0360    9.1786 F       1  UNL1       -0.1659
     30 F           0.7392   -7.2021    8.6774 F       1  UNL1       -0.1659
     31 F           2.3623   -5.7750    9.4178 F       1  UNL1       -0.1659
     32 C           0.7780   -6.0430    6.1888 C.ar    1  UNL1       -0.0483
     33 C           1.0475   -5.6727    4.8845 C.ar    1  UNL1       -0.0348
     34 C           0.0750   -3.1745    2.0302 C.3     1  UNL1        0.0333
     35 C          -0.0545   -2.2957    0.7815 C.3     1  UNL1        0.0141
     36 H           1.6122    1.3400    0.4937 H       1  UNL1        0.0249
     37 H           0.3311    2.0628   -0.5086 H       1  UNL1        0.0249
     38 H           0.0468    1.7696    1.2239 H       1  UNL1        0.0249
     39 H          -0.6608    0.2556   -2.5274 H       1  UNL1        0.1493
     40 H           1.4410   -2.6086   -2.7235 H       1  UNL1        0.0288
     41 H          -0.1361   -2.7045   -3.5433 H       1  UNL1        0.0288
     42 H           1.6072   -3.9186   -4.8223 H       1  UNL1        0.0302
     43 H           3.5471   -2.5715   -4.0670 H       1  UNL1        0.0271
     44 H           3.4706   -2.6410   -5.8440 H       1  UNL1        0.0271
     45 H           3.9285   -0.3327   -5.0625 H       1  UNL1        0.0302
     46 H           2.0778    0.7839   -6.2778 H       1  UNL1        0.0271
     47 H           2.6126   -0.6815   -7.1350 H       1  UNL1        0.0271
     48 H           0.1378   -0.5632   -7.0331 H       1  UNL1        0.0302
     49 H           1.2570   -2.7756   -6.9948 H       1  UNL1        0.0271
     50 H          -0.2435   -2.8020   -6.0376 H       1  UNL1        0.0271
     51 H          -0.9941   -0.7450   -4.8344 H       1  UNL1        0.0288
     52 H          -0.0284    0.7468   -4.9343 H       1  UNL1        0.0288
     53 H           2.1853    0.8815   -3.7835 H       1  UNL1        0.0288
     54 H           2.7965   -0.5145   -2.8638 H       1  UNL1        0.0288
     55 H           2.3359   -1.1671    0.7863 H       1  UNL1        0.0440
     56 H           1.9070    0.2586    1.7627 H       1  UNL1        0.0440
     57 H           2.9327   -1.6144    3.1142 H       1  UNL1        0.0456
     58 H           1.2946   -1.1646    3.6573 H       1  UNL1        0.0456
     59 H           3.5221   -3.4523    5.4538 H       1  UNL1        0.0637
     60 H           3.0377   -4.1071    7.7775 H       1  UNL1        0.0624
     61 H           0.0071   -6.7706    6.3953 H       1  UNL1        0.0624
     62 H           0.4889   -6.1130    4.0718 H       1  UNL1        0.0637
     63 H          -0.0589   -4.2211    1.7569 H       1  UNL1        0.0456
     64 H          -0.6795   -2.8847    2.7617 H       1  UNL1        0.0456
     65 H          -1.0777   -2.3421    0.4086 H       1  UNL1        0.0440
     66 H           0.6299   -2.6536    0.0123 H       1  UNL1        0.0440
@<TRIPOS>BOND
     1     1     2    1
     2     1    36    1
     3     1    37    1
     4     1    38    1
     5     2     3    1
     6     2     4    1
     7     2    17    1
     8     4     5    2
     9     4     6   am
    10     6    39    1
    11     7     6    1
    12     7    15    1
    13     7    16    1
    14     7     8    1
    15     8     9    1
    16     8    40    1
    17     8    41    1
    18     9    14    1
    19     9    10    1
    20     9    42    1
    21    10    11    1
    22    10    43    1
    23    10    44    1
    24    11    12    1
    25    11    16    1
    26    11    45    1
    27    12    13    1
    28    12    46    1
    29    12    47    1
    30    13    14    1
    31    13    15    1
    32    13    48    1
    33    14    49    1
    34    14    50    1
    35    15    51    1
    36    15    52    1
    37    16    53    1
    38    16    54    1
    39    17    35    1
    40    17    18    1
    41    18    19    1
    42    18    55    1
    43    18    56    1
    44    19    20    1
    45    19    57    1
    46    19    58    1
    47    21    20    1
    48    20    34    1
    49    21    22    2
    50    21    23    2
    51    21    24    1
    52    24    33   ar
    53    24    25   ar
    54    25    26   ar
    55    25    59    1
    56    26    27   ar
    57    26    60    1
    58    27    28    1
    59    27    32   ar
    60    28    29    1
    61    28    30    1
    62    28    31    1
    63    32    33   ar
    64    32    61    1
    65    33    62    1
    66    34    35    1
    67    34    63    1
    68    34    64    1
    69    35    65    1
    70    35    66    1
