@<TRIPOS>MOLECULE
ZINC000408550339
 54 56 0 0 0
SMALL
GASTEIGER

@<TRIPOS>ATOM
      1 C          -0.0173    1.4248    0.0099 C.3     1  UNL1        0.0788
      2 O           0.0021   -0.0041    0.0020 O.3     1  UNL1       -0.4948
      3 C          -1.2003   -0.6375    0.0101 C.ar    1  UNL1        0.1231
      4 C          -2.3744    0.1010    0.0195 C.ar    1  UNL1       -0.0178
      5 C          -3.5956   -0.5454    0.0272 C.ar    1  UNL1       -0.0319
      6 C          -3.6478   -1.9268    0.0260 C.ar    1  UNL1        0.1060
      7 S          -5.2067   -2.7480    0.0365 S.O2    1  UNL1        0.0613
      8 O          -4.9753   -4.0413    0.5778 O.2     1  UNL1       -0.1528
      9 O          -6.1402   -1.8299    0.5888 O.2     1  UNL1       -0.1528
     10 N          -5.6519   -2.9747   -1.5424 N.3     1  UNL1       -0.1675
     11 C          -5.2576   -4.1975   -2.2463 C.3     1  UNL1        0.0250
     12 C          -6.3901   -5.2227   -2.1614 C.3     1  UNL1       -0.0132
     13 C          -5.9845   -6.4805   -2.8855 C.ar    1  UNL1       -0.0461
     14 C          -6.2610   -6.6224   -4.2324 C.ar    1  UNL1       -0.0585
     15 C          -5.8889   -7.7762   -4.8966 C.ar    1  UNL1       -0.0615
     16 C          -5.2399   -8.7879   -4.2140 C.ar    1  UNL1       -0.0617
     17 C          -4.9625   -8.6457   -2.8673 C.ar    1  UNL1       -0.0615
     18 C          -5.3308   -7.4901   -2.2040 C.ar    1  UNL1       -0.0585
     19 C          -6.4401   -1.9525   -2.2352 C.3     1  UNL1        0.0968
     20 C          -5.5173   -1.0409   -3.0022 C.2     1  UNL1        0.2290
     21 O          -4.3192   -1.2267   -2.9730 O.2     1  UNL1       -0.2743
     22 N          -6.0234   -0.0190   -3.7206 N.am    1  UNL1       -0.3114
     23 C          -5.1263    0.8672   -4.4663 C.3     1  UNL1        0.0233
     24 C          -5.5357    1.2520   -5.8894 C.3     1  UNL1       -0.0328
     25 C          -5.6199    2.2846   -4.7636 C.3     1  UNL1       -0.0328
     26 C          -2.4787   -2.6653    0.0162 C.ar    1  UNL1       -0.0290
     27 C          -1.2554   -2.0239    0.0032 C.ar    1  UNL1       -0.0070
     28 C           0.0183   -2.8292   -0.0080 C.3     1  UNL1       -0.0362
     29 H           1.0053    1.8021    0.0021 H       1  UNL1        0.0660
     30 H          -0.5445    1.7859   -0.8732 H       1  UNL1        0.0660
     31 H          -0.5275    1.7763    0.9067 H       1  UNL1        0.0660
     32 H          -2.3342    1.1802    0.0211 H       1  UNL1        0.0655
     33 H          -4.5101    0.0291    0.0345 H       1  UNL1        0.0638
     34 H          -5.0551   -3.9656   -3.2919 H       1  UNL1        0.0447
     35 H          -4.3598   -4.6089   -1.7849 H       1  UNL1        0.0447
     36 H          -6.5926   -5.4546   -1.1158 H       1  UNL1        0.0326
     37 H          -7.2879   -4.8113   -2.6227 H       1  UNL1        0.0326
     38 H          -6.7681   -5.8319   -4.7658 H       1  UNL1        0.0620
     39 H          -6.1056   -7.8873   -5.9488 H       1  UNL1        0.0618
     40 H          -4.9498   -9.6896   -4.7328 H       1  UNL1        0.0618
     41 H          -4.4557   -9.4363   -2.3339 H       1  UNL1        0.0618
     42 H          -5.1141   -7.3789   -1.1518 H       1  UNL1        0.0620
     43 H          -7.1323   -2.4338   -2.9261 H       1  UNL1        0.0539
     44 H          -7.0019   -1.3700   -1.5049 H       1  UNL1        0.0539
     45 H          -6.9817    0.1296   -3.7440 H       1  UNL1        0.1490
     46 H          -4.0629    0.7362   -4.2662 H       1  UNL1        0.0498
     47 H          -4.7415    1.3741   -6.6259 H       1  UNL1        0.0284
     48 H          -6.4725    0.8458   -6.2709 H       1  UNL1        0.0284
     49 H          -6.6121    2.5577   -4.4043 H       1  UNL1        0.0284
     50 H          -4.8812    3.0860   -4.7594 H       1  UNL1        0.0284
     51 H          -2.5221   -3.7444    0.0150 H       1  UNL1        0.0641
     52 H           0.3153   -3.0251   -1.0383 H       1  UNL1        0.0279
     53 H           0.8060   -2.2703    0.4972 H       1  UNL1        0.0279
     54 H          -0.1452   -3.7748    0.5090 H       1  UNL1        0.0279
@<TRIPOS>BOND
     1     1     2    1
     2     1    29    1
     3     1    30    1
     4     1    31    1
     5     2     3    1
     6     3    27   ar
     7     3     4   ar
     8     4     5   ar
     9     4    32    1
    10     5     6   ar
    11     5    33    1
    12     6     7    1
    13     6    26   ar
    14     7     8    2
    15     7     9    2
    16     7    10    1
    17    10    11    1
    18    10    19    1
    19    11    12    1
    20    11    34    1
    21    11    35    1
    22    12    13    1
    23    12    36    1
    24    12    37    1
    25    13    18   ar
    26    13    14   ar
    27    14    15   ar
    28    14    38    1
    29    15    16   ar
    30    15    39    1
    31    16    17   ar
    32    16    40    1
    33    17    18   ar
    34    17    41    1
    35    18    42    1
    36    19    20    1
    37    19    43    1
    38    19    44    1
    39    20    21    2
    40    20    22   am
    41    22    23    1
    42    22    45    1
    43    23    25    1
    44    23    24    1
    45    23    46    1
    46    24    25    1
    47    24    47    1
    48    24    48    1
    49    25    49    1
    50    25    50    1
    51    26    27   ar
    52    26    51    1
    53    27    28    1
    54    28    52    1
    55    28    53    1
    56    28    54    1
