@<TRIPOS>MOLECULE
ZINC000008167302
 44 45 0 0 0
SMALL
GASTEIGER

@<TRIPOS>ATOM
      1 C          -0.0217    1.4990    0.0173 C.3     1  UNL1       -0.0436
      2 C           0.0370   -0.0068   -0.0001 C.2     1  UNL1       -0.0708
      3 C           0.2500   -0.7675    1.2832 C.3     1  UNL1       -0.0436
      4 C          -0.0993   -0.6643   -1.1481 C.2     1  UNL1       -0.0009
      5 C          -0.1225    0.0739   -2.4203 C.2     1  UNL1        0.2394
      6 O           0.0430    1.2787   -2.4273 O.2     1  UNL1       -0.2706
      7 N          -0.3273   -0.5849   -3.5780 N.am    1  UNL1       -0.2955
      8 C          -0.4267   -2.0511   -3.5968 C.3     1  UNL1        0.0294
      9 C          -1.7531   -2.4439   -4.2592 C.3     1  UNL1        0.0364
     10 N          -1.8813   -1.7090   -5.5255 N.3     1  UNL1       -0.1736
     11 S          -2.1340   -2.5184   -6.9479 S.O2    1  UNL1        0.0609
     12 O          -1.6711   -1.6631   -7.9840 O.2     1  UNL1       -0.1528
     13 O          -1.6431   -3.8374   -6.7516 O.2     1  UNL1       -0.1528
     14 C          -3.8768   -2.6630   -7.1633 C.ar    1  UNL1        0.1055
     15 C          -4.5478   -3.7583   -6.6527 C.ar    1  UNL1       -0.0348
     16 C          -5.9151   -3.8717   -6.8217 C.ar    1  UNL1       -0.0483
     17 C          -6.6114   -2.8896   -7.5010 C.ar    1  UNL1        0.0549
     18 C          -8.1019   -3.0134   -7.6856 C.3     1  UNL1        0.4174
     19 F          -8.7573   -2.4056   -6.6094 F       1  UNL1       -0.1659
     20 F          -8.4781   -2.3835   -8.8768 F       1  UNL1       -0.1659
     21 F          -8.4540   -4.3662   -7.7421 F       1  UNL1       -0.1659
     22 C          -5.9405   -1.7935   -8.0104 C.ar    1  UNL1       -0.0483
     23 C          -4.5738   -1.6782   -7.8381 C.ar    1  UNL1       -0.0348
     24 C          -1.7819   -0.2428   -5.5067 C.3     1  UNL1        0.0364
     25 C          -0.4611    0.1503   -4.8435 C.3     1  UNL1        0.0294
     26 H           0.9607    1.9037   -0.2263 H       1  UNL1        0.0274
     27 H          -0.7489    1.8428   -0.7182 H       1  UNL1        0.0274
     28 H          -0.3192    1.8395    1.0091 H       1  UNL1        0.0274
     29 H          -0.7152   -0.9921    1.7370 H       1  UNL1        0.0274
     30 H           0.7771   -1.6977    1.0710 H       1  UNL1        0.0274
     31 H           0.8424   -0.1628    1.9700 H       1  UNL1        0.0274
     32 H          -0.1929   -1.7402   -1.1463 H       1  UNL1        0.0669
     33 H           0.4041   -2.4668   -4.1669 H       1  UNL1        0.0478
     34 H          -0.4005   -2.4326   -2.5761 H       1  UNL1        0.0478
     35 H          -1.7603   -3.5159   -4.4561 H       1  UNL1        0.0459
     36 H          -2.5818   -2.1848   -3.6004 H       1  UNL1        0.0459
     37 H          -4.0038   -4.5257   -6.1219 H       1  UNL1        0.0637
     38 H          -6.4393   -4.7279   -6.4233 H       1  UNL1        0.0624
     39 H          -6.4846   -1.0260   -8.5408 H       1  UNL1        0.0624
     40 H          -4.0497   -0.8219   -8.2361 H       1  UNL1        0.0637
     41 H          -1.8081    0.1387   -6.5274 H       1  UNL1        0.0459
     42 H          -2.6127    0.1729   -4.9366 H       1  UNL1        0.0459
     43 H          -0.4552    1.2225   -4.6472 H       1  UNL1        0.0478
     44 H           0.3693   -0.1084   -5.5004 H       1  UNL1        0.0478
@<TRIPOS>BOND
     1     1     2    1
     2     1    26    1
     3     1    27    1
     4     1    28    1
     5     2     3    1
     6     2     4    2
     7     3    29    1
     8     3    30    1
     9     3    31    1
    10     4     5    1
    11     4    32    1
    12     5     6    2
    13     5     7   am
    14     7    25    1
    15     7     8    1
    16     8     9    1
    17     8    33    1
    18     8    34    1
    19     9    10    1
    20     9    35    1
    21     9    36    1
    22    11    10    1
    23    10    24    1
    24    11    12    2
    25    11    13    2
    26    11    14    1
    27    14    23   ar
    28    14    15   ar
    29    15    16   ar
    30    15    37    1
    31    16    17   ar
    32    16    38    1
    33    17    18    1
    34    17    22   ar
    35    18    19    1
    36    18    20    1
    37    18    21    1
    38    22    23   ar
    39    22    39    1
    40    23    40    1
    41    24    25    1
    42    24    41    1
    43    24    42    1
    44    25    43    1
    45    25    44    1
