@<TRIPOS>MOLECULE
ZINC000096479548
 43 44 0 0 0
SMALL
GASTEIGER

@<TRIPOS>ATOM
      1 C          -0.0187    1.5258    0.0104 C.3     1  UNL1       -0.0580
      2 C           0.0021   -0.0041    0.0020 C.3     1  UNL1       -0.0104
      3 H           0.5293   -0.3651    0.8851 H       1  UNL1        0.0351
      4 C          -1.4333   -0.5336    0.0129 C.3     1  UNL1        0.0307
      5 C          -2.1001   -0.1511    1.3091 C.2     1  UNL1        0.2161
      6 O          -1.4875    0.4827    2.1421 O.2     1  UNL1       -0.2756
      7 N          -3.3771   -0.5133    1.5425 N.am    1  UNL1       -0.3007
      8 C          -4.1301   -1.2865    0.5456 C.3     1  UNL1        0.0147
      9 C          -5.4406   -0.5541    0.2408 C.3     1  UNL1       -0.0363
     10 C          -6.1980   -0.3068    1.5474 C.3     1  UNL1       -0.0371
     11 C          -5.3540    0.5767    2.4689 C.3     1  UNL1        0.0764
     12 H          -5.1354    1.5200    1.9685 H       1  UNL1        0.0430
     13 C          -6.1144    0.8469    3.7417 C.2     1  UNL1        0.3605
     14 O          -7.2284    0.3766    3.8978 O.co2   1  UNL1       -0.2460
     15 O          -5.6156    1.5357    4.6153 O.co2   1  UNL1       -0.2460
     16 C          -4.0407   -0.1477    2.8014 C.3     1  UNL1        0.0277
     17 C           0.7074   -0.4901   -1.2379 C.ar    1  UNL1       -0.0441
     18 C           0.2220   -0.1511   -2.4870 C.ar    1  UNL1       -0.0578
     19 C           0.8690   -0.5969   -3.6243 C.ar    1  UNL1       -0.0499
     20 C           2.0018   -1.3813   -3.5125 C.ar    1  UNL1        0.0548
     21 C           2.7068   -1.8677   -4.7524 C.3     1  UNL1        0.4174
     22 F           3.6758   -0.9337   -5.1346 F       1  UNL1       -0.1659
     23 F           3.3219   -3.0960   -4.4875 F       1  UNL1       -0.1659
     24 F           1.7773   -2.0249   -5.7861 F       1  UNL1       -0.1659
     25 C           2.4880   -1.7191   -2.2634 C.ar    1  UNL1       -0.0499
     26 C           1.8432   -1.2701   -1.1261 C.ar    1  UNL1       -0.0578
     27 H           1.0039    1.9031    0.0027 H       1  UNL1        0.0236
     28 H          -0.5459    1.8868   -0.8726 H       1  UNL1        0.0236
     29 H          -0.5289    1.8773    0.9072 H       1  UNL1        0.0236
     30 H          -1.9862   -0.1019   -0.8214 H       1  UNL1        0.0364
     31 H          -1.4207   -1.6194   -0.0826 H       1  UNL1        0.0364
     32 H          -3.5414   -1.3772   -0.3672 H       1  UNL1        0.0464
     33 H          -4.3493   -2.2781    0.9416 H       1  UNL1        0.0464
     34 H          -5.2212    0.3999   -0.2387 H       1  UNL1        0.0281
     35 H          -6.0520   -1.1639   -0.4243 H       1  UNL1        0.0281
     36 H          -7.1425    0.1924    1.3308 H       1  UNL1        0.0274
     37 H          -6.3954   -1.2596    2.0386 H       1  UNL1        0.0274
     38 H          -4.2552   -1.0452    3.3816 H       1  UNL1        0.0472
     39 H          -3.3931    0.5149    3.3754 H       1  UNL1        0.0472
     40 H          -0.6631    0.4617   -2.5743 H       1  UNL1        0.0620
     41 H           0.4893   -0.3327   -4.6002 H       1  UNL1        0.0623
     42 H           3.3733   -2.3316   -2.1760 H       1  UNL1        0.0623
     43 H           2.2231   -1.5340   -0.1501 H       1  UNL1        0.0620
@<TRIPOS>BOND
     1     1     2    1
     2     1    27    1
     3     1    28    1
     4     1    29    1
     5     2     3    1
     6     2     4    1
     7     2    17    1
     8     4     5    1
     9     4    30    1
    10     4    31    1
    11     5     6    2
    12     5     7   am
    13     7    16    1
    14     7     8    1
    15     8     9    1
    16     8    32    1
    17     8    33    1
    18     9    10    1
    19     9    34    1
    20     9    35    1
    21    10    11    1
    22    10    36    1
    23    10    37    1
    24    11    12    1
    25    11    13    1
    26    11    16    1
    27    13    14   ar
    28    13    15   ar
    29    16    38    1
    30    16    39    1
    31    17    26   ar
    32    17    18   ar
    33    18    19   ar
    34    18    40    1
    35    19    20   ar
    36    19    41    1
    37    20    21    1
    38    20    25   ar
    39    21    22    1
    40    21    23    1
    41    21    24    1
    42    25    26   ar
    43    25    42    1
    44    26    43    1
