@<TRIPOS>MOLECULE
ZINC000009806357
 56 58 0 0 0
SMALL
GASTEIGER

@<TRIPOS>ATOM
      1 C           1.5209    1.2804    0.1451 C.3     1  UNL1       -0.0397
      2 C           0.9734   -0.1236    0.1593 C.ar    1  UNL1       -0.0498
      3 C           0.7342   -0.7600    1.3629 C.ar    1  UNL1       -0.0540
      4 C           0.2320   -2.0479    1.3760 C.ar    1  UNL1       -0.0236
      5 C          -0.0283   -2.7419    2.6881 C.3     1  UNL1       -0.0378
      6 C          -0.0318   -2.6990    0.1854 C.ar    1  UNL1        0.1113
      7 S          -0.6724   -4.3403    0.2020 S.O2    1  UNL1        0.0616
      8 O          -1.3136   -4.5080    1.4590 O.2     1  UNL1       -0.1528
      9 O          -1.3374   -4.5241   -1.0403 O.2     1  UNL1       -0.1528
     10 N           0.6228   -5.3721    0.1964 N.3     1  UNL1       -0.1720
     11 C           1.3693   -5.8074   -0.9980 C.3     1  UNL1        0.0209
     12 C           2.7690   -6.2061   -0.4674 C.3     1  UNL1       -0.0370
     13 C           2.4120   -6.8553    0.8958 C.3     1  UNL1       -0.0330
     14 C           1.2226   -6.0009    1.3823 C.3     1  UNL1        0.0474
     15 H           1.5742   -5.2365    2.0753 H       1  UNL1        0.0495
     16 C           0.1889   -6.8930    2.0725 C.3     1  UNL1        0.0291
     17 N           0.7741   -7.4703    3.2852 N.am    1  UNL1       -0.3098
     18 C           0.0790   -8.3734    4.0048 C.2     1  UNL1        0.2441
     19 O          -0.9902   -8.7827    3.5966 O.2     1  UNL1       -0.2702
     20 C           0.6172   -8.8663    5.2906 C.ar    1  UNL1        0.0367
     21 C           1.7843   -8.3134    5.8199 C.ar    1  UNL1       -0.0491
     22 C           2.2809   -8.7775    7.0204 C.ar    1  UNL1       -0.0494
     23 C           1.6249   -9.7890    7.6992 C.ar    1  UNL1        0.0549
     24 C           2.1734  -10.2914    9.0099 C.3     1  UNL1        0.4174
     25 F           1.6249   -9.5482   10.0605 F       1  UNL1       -0.1659
     26 F           1.8392  -11.6406    9.1688 F       1  UNL1       -0.1659
     27 F           3.5654  -10.1518    9.0170 F       1  UNL1       -0.1659
     28 C           0.4672  -10.3411    7.1802 C.ar    1  UNL1       -0.0494
     29 C          -0.0429   -9.8825    5.9832 C.ar    1  UNL1       -0.0491
     30 C           0.2066   -2.0622   -1.0182 C.ar    1  UNL1       -0.0236
     31 C          -0.0815   -2.7718   -2.3161 C.3     1  UNL1       -0.0378
     32 C           0.7051   -0.7729   -1.0312 C.ar    1  UNL1       -0.0540
     33 H           0.6955    1.9923    0.1537 H       1  UNL1        0.0278
     34 H           2.1443    1.4362    1.0255 H       1  UNL1        0.0278
     35 H           2.1188    1.4281   -0.7542 H       1  UNL1        0.0278
     36 H           0.9400   -0.2512    2.2931 H       1  UNL1        0.0623
     37 H          -1.0788   -2.6295    2.9564 H       1  UNL1        0.0278
     38 H           0.2111   -3.8010    2.5927 H       1  UNL1        0.0278
     39 H           0.5945   -2.2971    3.4642 H       1  UNL1        0.0278
     40 H           0.8801   -6.6652   -1.4595 H       1  UNL1        0.0444
     41 H           1.4535   -4.9882   -1.7122 H       1  UNL1        0.0444
     42 H           3.2473   -6.9271   -1.1302 H       1  UNL1        0.0279
     43 H           3.3990   -5.3275   -0.3286 H       1  UNL1        0.0279
     44 H           2.1150   -7.8954    0.7616 H       1  UNL1        0.0282
     45 H           3.2485   -6.7786    1.5904 H       1  UNL1        0.0282
     46 H          -0.6848   -6.2980    2.3384 H       1  UNL1        0.0478
     47 H          -0.1092   -7.6941    1.3961 H       1  UNL1        0.0478
     48 H           1.6617   -7.2025    3.5702 H       1  UNL1        0.1491
     49 H           2.2977   -7.5242    5.2907 H       1  UNL1        0.0625
     50 H           3.1839   -8.3505    7.4312 H       1  UNL1        0.0623
     51 H          -0.0403  -11.1302    7.7151 H       1  UNL1        0.0623
     52 H          -0.9468  -10.3140    5.5793 H       1  UNL1        0.0625
     53 H          -1.1372   -2.6613   -2.5640 H       1  UNL1        0.0278
     54 H           0.5256   -2.3373   -3.1102 H       1  UNL1        0.0278
     55 H           0.1586   -3.8300   -2.2127 H       1  UNL1        0.0278
     56 H           0.8914   -0.2754   -1.9715 H       1  UNL1        0.0623
@<TRIPOS>BOND
     1     1     2    1
     2     1    33    1
     3     1    34    1
     4     1    35    1
     5     2    32   ar
     6     2     3   ar
     7     3     4   ar
     8     3    36    1
     9     4     5    1
    10     4     6   ar
    11     5    37    1
    12     5    38    1
    13     5    39    1
    14     6     7    1
    15     6    30   ar
    16     7     8    2
    17     7     9    2
    18     7    10    1
    19    10    14    1
    20    10    11    1
    21    11    12    1
    22    11    40    1
    23    11    41    1
    24    12    13    1
    25    12    42    1
    26    12    43    1
    27    13    14    1
    28    13    44    1
    29    13    45    1
    30    14    15    1
    31    14    16    1
    32    16    17    1
    33    16    46    1
    34    16    47    1
    35    17    18   am
    36    17    48    1
    37    18    19    2
    38    18    20    1
    39    20    29   ar
    40    20    21   ar
    41    21    22   ar
    42    21    49    1
    43    22    23   ar
    44    22    50    1
    45    23    24    1
    46    23    28   ar
    47    24    25    1
    48    24    26    1
    49    24    27    1
    50    28    29   ar
    51    28    51    1
    52    29    52    1
    53    30    31    1
    54    30    32   ar
    55    31    53    1
    56    31    54    1
    57    31    55    1
    58    32    56    1
