@<TRIPOS>MOLECULE
ZINC000053895126
 37 38 0 0 0
SMALL
GASTEIGER

@<TRIPOS>ATOM
      1 N          -0.0162    1.3436    0.0094 N.am    1  UNL1       -0.3291
      2 C           0.0021   -0.0041    0.0020 C.2     1  UNL1        0.2151
      3 O           1.0605   -0.5961   -0.0113 O.2     1  UNL1       -0.2757
      4 C          -1.2926   -0.7753    0.0102 C.3     1  UNL1        0.0525
      5 H          -1.8842   -0.5321    0.8929 H       1  UNL1        0.0410
      6 C          -1.0312   -2.3019   -0.0808 C.3     1  UNL1       -0.0246
      7 C          -2.3250   -2.8360   -0.7308 C.3     1  UNL1        0.0155
      8 N          -2.9517   -1.7127   -1.4427 N.am    1  UNL1       -0.2979
      9 C          -4.1135   -1.7645   -2.1239 C.2     1  UNL1        0.2532
     10 O          -4.5381   -0.7712   -2.6752 O.2     1  UNL1       -0.2719
     11 C          -4.8851   -3.0567   -2.2004 C.3     1  UNL1        0.1653
     12 O          -6.0718   -2.8580   -2.9713 O.3     1  UNL1       -0.4828
     13 C          -6.8861   -3.9331   -3.1385 C.ar    1  UNL1        0.1212
     14 C          -6.5529   -5.1527   -2.5673 C.ar    1  UNL1       -0.0194
     15 C          -7.3826   -6.2439   -2.7383 C.ar    1  UNL1       -0.0467
     16 C          -8.5442   -6.1214   -3.4783 C.ar    1  UNL1        0.0550
     17 C          -9.4473   -7.3135   -3.6636 C.3     1  UNL1        0.4174
     18 F         -10.3877   -7.3514   -2.6286 F       1  UNL1       -0.1659
     19 F         -10.1093   -7.2105   -4.8917 F       1  UNL1       -0.1659
     20 F          -8.6831   -8.4851   -3.6426 F       1  UNL1       -0.1659
     21 C          -8.8788   -4.9068   -4.0481 C.ar    1  UNL1       -0.0467
     22 C          -8.0550   -3.8113   -3.8757 C.ar    1  UNL1       -0.0194
     23 C          -2.0997   -0.5191   -1.2869 C.3     1  UNL1        0.0259
     24 H           0.8172    1.8399    0.0041 H       1  UNL1        0.1449
     25 H          -0.8627    1.8171    0.0160 H       1  UNL1        0.1449
     26 H          -0.1681   -2.5083   -0.7137 H       1  UNL1        0.0288
     27 H          -0.8936   -2.7295    0.9123 H       1  UNL1        0.0288
     28 H          -2.0847   -3.6330   -1.4344 H       1  UNL1        0.0465
     29 H          -2.9998   -3.2096    0.0394 H       1  UNL1        0.0465
     30 H          -4.2682   -3.8208   -2.6735 H       1  UNL1        0.0795
     31 H          -5.1548   -3.3790   -1.1947 H       1  UNL1        0.0795
     32 H          -5.6454   -5.2490   -1.9898 H       1  UNL1        0.0654
     33 H          -7.1237   -7.1935   -2.2939 H       1  UNL1        0.0624
     34 H          -9.7868   -4.8136   -4.6254 H       1  UNL1        0.0624
     35 H          -8.3168   -2.8629   -4.3210 H       1  UNL1        0.0654
     36 H          -2.7146    0.3748   -1.1821 H       1  UNL1        0.0472
     37 H          -1.4265   -0.4198   -2.1384 H       1  UNL1        0.0472
@<TRIPOS>BOND
     1     1     2   am
     2     1    24    1
     3     1    25    1
     4     2     3    2
     5     2     4    1
     6     4     5    1
     7     4    23    1
     8     4     6    1
     9     6     7    1
    10     6    26    1
    11     6    27    1
    12     7     8    1
    13     7    28    1
    14     7    29    1
    15     8     9   am
    16     8    23    1
    17     9    10    2
    18     9    11    1
    19    11    12    1
    20    11    30    1
    21    11    31    1
    22    12    13    1
    23    13    22   ar
    24    13    14   ar
    25    14    15   ar
    26    14    32    1
    27    15    16   ar
    28    15    33    1
    29    16    17    1
    30    16    21   ar
    31    17    18    1
    32    17    19    1
    33    17    20    1
    34    21    22   ar
    35    21    34    1
    36    22    35    1
    37    23    36    1
    38    23    37    1
