@<TRIPOS>MOLECULE
ZINC000069453766
 34 35 0 0 0
SMALL
GASTEIGER

@<TRIPOS>ATOM
      1 N          -0.0162    1.3436    0.0094 N.am    1  UNL1       -0.3291
      2 C           0.0021   -0.0041    0.0020 C.2     1  UNL1        0.2149
      3 O           1.0605   -0.5961   -0.0113 O.2     1  UNL1       -0.2757
      4 C          -1.2926   -0.7753    0.0102 C.3     1  UNL1        0.0509
      5 H          -1.8808   -0.5292    0.8943 H       1  UNL1        0.0408
      6 C          -2.1040   -0.4995   -1.2832 C.3     1  UNL1       -0.0262
      7 C          -2.9444   -1.7952   -1.4053 C.3     1  UNL1        0.0213
      8 N          -2.0453   -2.8722   -0.9524 N.3     1  UNL1       -0.1758
      9 S          -2.1648   -4.4696   -1.3724 S.O2    1  UNL1        0.0636
     10 O          -1.5134   -5.2043   -0.3452 O.2     1  UNL1       -0.1528
     11 O          -3.5191   -4.6866   -1.7439 O.2     1  UNL1       -0.1528
     12 C          -1.2056   -4.6982   -2.8326 C.ar    1  UNL1        0.1410
     13 C          -0.0859   -5.5073   -2.8044 C.ar    1  UNL1       -0.0209
     14 C           0.6671   -5.6868   -3.9500 C.ar    1  UNL1        0.0568
     15 C           1.8881   -6.5695   -3.9179 C.3     1  UNL1        0.4175
     16 F           1.5227   -7.8825   -4.2335 F       1  UNL1       -0.1659
     17 F           2.8218   -6.1080   -4.8519 F       1  UNL1       -0.1659
     18 F           2.4532   -6.5373   -2.6386 F       1  UNL1       -0.1659
     19 C           0.3005   -5.0576   -5.1249 C.ar    1  UNL1       -0.0473
     20 C          -0.8189   -4.2474   -5.1554 C.ar    1  UNL1       -0.0240
     21 C          -1.5768   -4.0715   -4.0104 C.ar    1  UNL1        0.1496
     22 F          -2.6712   -3.2798   -4.0390 F       1  UNL1       -0.2034
     23 C          -1.0244   -2.2933   -0.0620 C.3     1  UNL1        0.0316
     24 H           0.8172    1.8399    0.0041 H       1  UNL1        0.1449
     25 H          -0.8627    1.8171    0.0160 H       1  UNL1        0.1449
     26 H          -2.7463    0.3729   -1.1630 H       1  UNL1        0.0286
     27 H          -1.4426   -0.3805   -2.1414 H       1  UNL1        0.0286
     28 H          -3.8231   -1.7393   -0.7628 H       1  UNL1        0.0444
     29 H          -3.2407   -1.9589   -2.4413 H       1  UNL1        0.0444
     30 H           0.2015   -5.9994   -1.8869 H       1  UNL1        0.0643
     31 H           0.8892   -5.1988   -6.0193 H       1  UNL1        0.0624
     32 H          -1.1048   -3.7554   -6.0734 H       1  UNL1        0.0647
     33 H          -0.0304   -2.4727   -0.4717 H       1  UNL1        0.0451
     34 H          -1.1040   -2.7364    0.9307 H       1  UNL1        0.0451
@<TRIPOS>BOND
     1     1     2   am
     2     1    24    1
     3     1    25    1
     4     2     3    2
     5     2     4    1
     6     4     5    1
     7     4    23    1
     8     4     6    1
     9     6     7    1
    10     6    26    1
    11     6    27    1
    12     7     8    1
    13     7    28    1
    14     7    29    1
    15     9     8    1
    16     8    23    1
    17     9    10    2
    18     9    11    2
    19     9    12    1
    20    12    21   ar
    21    12    13   ar
    22    13    14   ar
    23    13    30    1
    24    14    15    1
    25    14    19   ar
    26    15    16    1
    27    15    17    1
    28    15    18    1
    29    19    20   ar
    30    19    31    1
    31    20    21   ar
    32    20    32    1
    33    21    22    1
    34    23    33    1
    35    23    34    1
