@<TRIPOS>MOLECULE
ZINC000003369802
 35 36 0 0 0
SMALL
GASTEIGER

@<TRIPOS>ATOM
      1 O           0.0822    0.2500   -0.2062 O.co2   1  UNL1       -0.2461
      2 C           0.1157    1.4468    0.0245 C.2     1  UNL1        0.3591
      3 O           1.1832    1.9979    0.2323 O.co2   1  UNL1       -0.2461
      4 C          -1.1618    2.2459    0.0465 C.3     1  UNL1        0.0631
      5 C          -2.3171    1.3482    0.4952 C.3     1  UNL1       -0.0254
      6 C          -3.6195    2.1547    0.4831 C.3     1  UNL1        0.0213
      7 N          -3.4374    3.3593    1.3043 N.3     1  UNL1       -0.1765
      8 S          -4.4916    3.7108    2.5321 S.O2    1  UNL1        0.0623
      9 O          -4.5349    5.1277    2.6306 O.2     1  UNL1       -0.1528
     10 O          -5.6455    2.9114    2.3114 O.2     1  UNL1       -0.1528
     11 C          -3.7627    3.1302    4.0275 C.ar    1  UNL1        0.1242
     12 C          -3.3507    4.0312    4.9909 C.ar    1  UNL1       -0.0223
     13 C          -2.7787    3.5758    6.1644 C.ar    1  UNL1        0.0567
     14 C          -2.3296    4.5590    7.2145 C.3     1  UNL1        0.4175
     15 F          -3.3834    4.8093    8.0999 F       1  UNL1       -0.1659
     16 F          -1.2451    4.0257    7.9192 F       1  UNL1       -0.1659
     17 F          -1.9434    5.7546    6.5992 F       1  UNL1       -0.1659
     18 C          -2.6190    2.2191    6.3749 C.ar    1  UNL1       -0.0486
     19 C          -3.0307    1.3168    5.4120 C.ar    1  UNL1       -0.0410
     20 C          -3.6079    1.7716    4.2400 C.ar    1  UNL1        0.0673
     21 CL         -4.1252    0.6391    3.0303 Cl      1  UNL1       -0.0815
     22 C          -2.3020    4.2460    1.0157 C.3     1  UNL1        0.0213
     23 C          -1.0143    3.4161    1.0217 C.3     1  UNL1       -0.0254
     24 H          -1.3673    2.6297   -0.9528 H       1  UNL1        0.0416
     25 H          -2.4066    0.5024   -0.1866 H       1  UNL1        0.0286
     26 H          -2.1241    0.9839    1.5042 H       1  UNL1        0.0286
     27 H          -3.8614    2.4429   -0.5399 H       1  UNL1        0.0444
     28 H          -4.4275    1.5501    0.8954 H       1  UNL1        0.0444
     29 H          -3.4752    5.0914    4.8269 H       1  UNL1        0.0643
     30 H          -2.1721    1.8639    7.2917 H       1  UNL1        0.0623
     31 H          -2.9059    0.2567    5.5766 H       1  UNL1        0.0633
     32 H          -2.4364    4.7048    0.0361 H       1  UNL1        0.0444
     33 H          -2.2406    5.0214    1.7793 H       1  UNL1        0.0444
     34 H          -0.8336    3.0323    2.0258 H       1  UNL1        0.0286
     35 H          -0.1766    4.0422    0.7148 H       1  UNL1        0.0286
@<TRIPOS>BOND
     1     1     2   ar
     2     2     3   ar
     3     2     4    1
     4     4    23    1
     5     4     5    1
     6     4    24    1
     7     5     6    1
     8     5    25    1
     9     5    26    1
    10     6     7    1
    11     6    27    1
    12     6    28    1
    13     8     7    1
    14     7    22    1
    15     8     9    2
    16     8    10    2
    17     8    11    1
    18    11    20   ar
    19    11    12   ar
    20    12    13   ar
    21    12    29    1
    22    13    14    1
    23    13    18   ar
    24    14    15    1
    25    14    16    1
    26    14    17    1
    27    18    19   ar
    28    18    30    1
    29    19    20   ar
    30    19    31    1
    31    20    21    1
    32    22    23    1
    33    22    32    1
    34    22    33    1
    35    23    34    1
    36    23    35    1
