@<TRIPOS>MOLECULE
ZINC000000529037
 47 48 0 0 0
SMALL
GASTEIGER

@<TRIPOS>ATOM
      1 C          -0.0187    1.5258    0.0104 C.3     1  UNL1       -0.0507
      2 C           0.0021   -0.0041    0.0020 C.3     1  UNL1        0.0182
      3 N          -1.3723   -0.5112    0.0124 N.3     1  UNL1       -0.1681
      4 C          -2.1099   -0.6542   -1.2453 C.3     1  UNL1        0.0968
      5 C          -1.7778   -1.9829   -1.8740 C.2     1  UNL1        0.2289
      6 O          -1.0015   -2.7362   -1.3256 O.2     1  UNL1       -0.2743
      7 N          -2.3435   -2.3340   -3.0459 N.am    1  UNL1       -0.3117
      8 C          -2.0207   -3.6257   -3.6571 C.3     1  UNL1        0.0379
      9 C          -2.7910   -3.7751   -4.9706 C.3     1  UNL1        0.0742
     10 H          -2.5282   -2.9695   -5.6563 H       1  UNL1        0.0611
     11 C          -2.4904   -5.1509   -5.6168 C.3     1  UNL1       -0.0231
     12 C          -3.7659   -5.3566   -6.4787 C.3     1  UNL1       -0.0271
     13 C          -4.8571   -4.6908   -5.6132 C.3     1  UNL1        0.0482
     14 O          -4.2057   -3.7763   -4.7216 O.3     1  UNL1       -0.3750
     15 S          -2.0922   -0.9227    1.4458 S.O2    1  UNL1        0.0613
     16 O          -3.1196   -1.8512    1.1269 O.2     1  UNL1       -0.1528
     17 O          -1.0393   -1.2108    2.3555 O.2     1  UNL1       -0.1528
     18 C          -2.8978    0.5199    2.0580 C.ar    1  UNL1        0.1055
     19 C          -2.2156    1.3954    2.8820 C.ar    1  UNL1       -0.0351
     20 C          -2.8476    2.5271    3.3622 C.ar    1  UNL1       -0.0570
     21 C          -4.1616    2.7836    3.0181 C.ar    1  UNL1       -0.0503
     22 C          -4.8508    4.0171    3.5421 C.3     1  UNL1       -0.0397
     23 C          -4.8434    1.9088    2.1930 C.ar    1  UNL1       -0.0570
     24 C          -4.2102    0.7790    1.7096 C.ar    1  UNL1       -0.0351
     25 H           1.0039    1.9031    0.0027 H       1  UNL1        0.0243
     26 H          -0.5459    1.8868   -0.8726 H       1  UNL1        0.0243
     27 H          -0.5289    1.8773    0.9072 H       1  UNL1        0.0243
     28 H           0.5123   -0.3556   -0.8948 H       1  UNL1        0.0441
     29 H           0.5293   -0.3651    0.8851 H       1  UNL1        0.0441
     30 H          -3.1804   -0.6037   -1.0465 H       1  UNL1        0.0539
     31 H          -1.8283    0.1500   -1.9251 H       1  UNL1        0.0539
     32 H          -2.9644   -1.7315   -3.4845 H       1  UNL1        0.1488
     33 H          -0.9502   -3.6762   -3.8559 H       1  UNL1        0.0487
     34 H          -2.3023   -4.4299   -2.9773 H       1  UNL1        0.0487
     35 H          -1.5978   -5.1052   -6.2408 H       1  UNL1        0.0291
     36 H          -2.3985   -5.9291   -4.8592 H       1  UNL1        0.0291
     37 H          -3.6706   -4.8508   -7.4395 H       1  UNL1        0.0288
     38 H          -3.9739   -6.4177   -6.6166 H       1  UNL1        0.0288
     39 H          -5.5556   -4.1490   -6.2509 H       1  UNL1        0.0560
     40 H          -5.3899   -5.4504   -5.0410 H       1  UNL1        0.0560
     41 H          -1.1890    1.1950    3.1509 H       1  UNL1        0.0637
     42 H          -2.3149    3.2108    4.0066 H       1  UNL1        0.0621
     43 H          -4.6986    4.8418    2.8457 H       1  UNL1        0.0278
     44 H          -5.9180    3.8210    3.6452 H       1  UNL1        0.0278
     45 H          -4.4342    4.2808    4.5142 H       1  UNL1        0.0278
     46 H          -5.8699    2.1094    1.9238 H       1  UNL1        0.0621
     47 H          -4.7428    0.0956    1.0650 H       1  UNL1        0.0637
@<TRIPOS>BOND
     1     1     2    1
     2     1    25    1
     3     1    26    1
     4     1    27    1
     5     2     3    1
     6     2    28    1
     7     2    29    1
     8     3     4    1
     9    15     3    1
    10     4     5    1
    11     4    30    1
    12     4    31    1
    13     5     6    2
    14     5     7   am
    15     7     8    1
    16     7    32    1
    17     8     9    1
    18     8    33    1
    19     8    34    1
    20     9    10    1
    21     9    14    1
    22     9    11    1
    23    11    12    1
    24    11    35    1
    25    11    36    1
    26    12    13    1
    27    12    37    1
    28    12    38    1
    29    13    14    1
    30    13    39    1
    31    13    40    1
    32    15    16    2
    33    15    17    2
    34    15    18    1
    35    18    24   ar
    36    18    19   ar
    37    19    20   ar
    38    19    41    1
    39    20    21   ar
    40    20    42    1
    41    21    22    1
    42    21    23   ar
    43    22    43    1
    44    22    44    1
    45    22    45    1
    46    23    24   ar
    47    23    46    1
    48    24    47    1
