@<TRIPOS>MOLECULE
ZINC000048309072
 41 43 0 0 0
SMALL
GASTEIGER

@<TRIPOS>ATOM
      1 N           0.5718    0.2425   -1.3331 N.am    1  UNL1       -0.3280
      2 C           0.0014   -0.0015   -0.1366 C.2     1  UNL1        0.2297
      3 O           0.5291    0.3983    0.8796 O.2     1  UNL1       -0.2742
      4 C          -1.2920   -0.7713   -0.0614 C.3     1  UNL1        0.1118
      5 H          -1.9346   -0.4949   -0.8973 H       1  UNL1        0.0579
      6 C          -1.9996   -0.4654    1.2578 C.3     1  UNL1       -0.0016
      7 C          -3.1202   -1.4409    1.5037 C.ar    1  UNL1       -0.0409
      8 C          -4.1129   -1.0689    2.4018 C.ar    1  UNL1       -0.0582
      9 C          -5.1626   -1.9197    2.6798 C.ar    1  UNL1       -0.0615
     10 C          -5.2290   -3.1544    2.0619 C.ar    1  UNL1       -0.0614
     11 C          -4.2462   -3.5252    1.1669 C.ar    1  UNL1       -0.0570
     12 C          -3.1928   -2.6676    0.8819 C.ar    1  UNL1       -0.0284
     13 C          -2.1672   -3.1234   -0.1253 C.3     1  UNL1        0.0466
     14 N          -1.0146   -2.2166   -0.1029 N.3     1  UNL1       -0.1601
     15 S           0.5369   -2.7953   -0.1211 S.O2    1  UNL1        0.0632
     16 O           1.3191   -1.8699    0.6212 O.2     1  UNL1       -0.1528
     17 O           0.4536   -4.1768    0.2012 O.2     1  UNL1       -0.1528
     18 C           1.1074   -2.7063   -1.7858 C.ar    1  UNL1        0.1243
     19 C           2.1557   -1.8675   -2.1131 C.ar    1  UNL1       -0.0223
     20 C           2.6034   -1.7975   -3.4194 C.ar    1  UNL1        0.0567
     21 C           3.7467   -0.8825   -3.7757 C.3     1  UNL1        0.4175
     22 F           4.9557   -1.5743   -3.6451 F       1  UNL1       -0.1659
     23 F           3.5999   -0.4454   -5.0965 F       1  UNL1       -0.1659
     24 F           3.7458    0.2214   -2.9163 F       1  UNL1       -0.1659
     25 C           2.0032   -2.5666   -4.3985 C.ar    1  UNL1       -0.0486
     26 C           0.9545   -3.4061   -4.0722 C.ar    1  UNL1       -0.0410
     27 C           0.5095   -3.4805   -2.7645 C.ar    1  UNL1        0.0673
     28 CL         -0.8074   -4.5344   -2.3540 Cl      1  UNL1       -0.0815
     29 H           1.4043    0.7380   -1.3815 H       1  UNL1        0.1450
     30 H           0.1518   -0.0807   -2.1455 H       1  UNL1        0.1450
     31 H          -1.2806   -0.5320    2.0742 H       1  UNL1        0.0334
     32 H          -2.4060    0.5454    1.2206 H       1  UNL1        0.0334
     33 H          -4.0621   -0.1053    2.8868 H       1  UNL1        0.0620
     34 H          -5.9303   -1.6220    3.3786 H       1  UNL1        0.0618
     35 H          -6.0463   -3.8262    2.2790 H       1  UNL1        0.0618
     36 H          -4.2971   -4.4902    0.6846 H       1  UNL1        0.0621
     37 H          -1.8395   -4.1331    0.1222 H       1  UNL1        0.0493
     38 H          -2.6105   -3.1206   -1.1211 H       1  UNL1        0.0493
     39 H           2.6251   -1.2663   -1.3486 H       1  UNL1        0.0643
     40 H           2.3534   -2.5115   -5.4186 H       1  UNL1        0.0623
     41 H           0.4856   -4.0070   -4.8373 H       1  UNL1        0.0633
@<TRIPOS>BOND
     1     1     2   am
     2     1    29    1
     3     1    30    1
     4     2     3    2
     5     2     4    1
     6     4     5    1
     7     4    14    1
     8     4     6    1
     9     6     7    1
    10     6    31    1
    11     6    32    1
    12     7    12   ar
    13     7     8   ar
    14     8     9   ar
    15     8    33    1
    16     9    10   ar
    17     9    34    1
    18    10    11   ar
    19    10    35    1
    20    11    12   ar
    21    11    36    1
    22    12    13    1
    23    13    14    1
    24    13    37    1
    25    13    38    1
    26    15    14    1
    27    15    16    2
    28    15    17    2
    29    15    18    1
    30    18    27   ar
    31    18    19   ar
    32    19    20   ar
    33    19    39    1
    34    20    21    1
    35    20    25   ar
    36    21    22    1
    37    21    23    1
    38    21    24    1
    39    25    26   ar
    40    25    40    1
    41    26    27   ar
    42    26    41    1
    43    27    28    1
