@<TRIPOS>MOLECULE
ZINC000008224156
 43 44 0 0 0
SMALL
GASTEIGER

@<TRIPOS>ATOM
      1 C          -2.5287    5.6028    0.4942 C.3     1  UNL1       -0.0362
      2 C          -1.2846    5.8898   -0.3489 C.3     1  UNL1        0.1191
      3 H          -1.0421    6.9509   -0.2893 H       1  UNL1        0.0612
      4 C          -1.5530    5.5157   -1.7839 C.2     1  UNL1        0.2392
      5 O          -0.8707    4.6741   -2.3289 O.2     1  UNL1       -0.2734
      6 N          -2.5513    6.1164   -2.4615 N.am    1  UNL1       -0.2839
      7 C          -2.7216    5.8628   -3.8270 C.ar    1  UNL1        0.0335
      8 C          -1.6253    5.5435   -4.6174 C.ar    1  UNL1       -0.0399
      9 C          -1.7976    5.2877   -5.9637 C.ar    1  UNL1       -0.0484
     10 C          -3.0583    5.3613   -6.5271 C.ar    1  UNL1        0.0549
     11 C          -3.2417    5.0881   -7.9978 C.3     1  UNL1        0.4174
     12 F          -3.1075    6.2822   -8.7142 F       1  UNL1       -0.1659
     13 F          -2.2723    4.1753   -8.4270 F       1  UNL1       -0.1659
     14 F          -4.5156    4.5532   -8.2174 F       1  UNL1       -0.1659
     15 C          -4.1511    5.6845   -5.7439 C.ar    1  UNL1       -0.0484
     16 C          -3.9864    5.9354   -4.3958 C.ar    1  UNL1       -0.0399
     17 N          -0.1584    5.1023    0.1586 N.pl3   1  UNL1       -0.1960
     18 C           1.0510    5.7302    0.4651 C.ar    1  UNL1        0.0517
     19 C           1.9039    5.1745    1.4103 C.ar    1  UNL1       -0.0391
     20 C           3.0988    5.7982    1.7113 C.ar    1  UNL1       -0.0600
     21 C           3.4465    6.9746    1.0731 C.ar    1  UNL1       -0.0616
     22 C           2.5971    7.5336    0.1358 C.ar    1  UNL1       -0.0600
     23 C           1.4034    6.9121   -0.1741 C.ar    1  UNL1       -0.0391
     24 S          -0.3192    3.4676    0.3689 S.O2    1  UNL1        0.0432
     25 C          -1.0306    3.2925    2.0283 C.3     1  UNL1        0.0738
     26 O          -1.2611    3.0779   -0.6212 O.2     1  UNL1       -0.1552
     27 O           1.0146    2.9782    0.3440 O.2     1  UNL1       -0.1552
     28 H          -2.7302    4.5316    0.4915 H       1  UNL1        0.0253
     29 H          -2.3593    5.9381    1.5175 H       1  UNL1        0.0253
     30 H          -3.3827    6.1343    0.0744 H       1  UNL1        0.0253
     31 H          -3.1517    6.7245   -2.0025 H       1  UNL1        0.1549
     32 H          -0.6397    5.4906   -4.1789 H       1  UNL1        0.0636
     33 H          -0.9461    5.0346   -6.5780 H       1  UNL1        0.0624
     34 H          -5.1344    5.7412   -6.1869 H       1  UNL1        0.0624
     35 H          -4.8403    6.1875   -3.7845 H       1  UNL1        0.0636
     36 H           1.6328    4.2559    1.9094 H       1  UNL1        0.0636
     37 H           3.7625    5.3665    2.4458 H       1  UNL1        0.0618
     38 H           4.3814    7.4604    1.3103 H       1  UNL1        0.0618
     39 H           2.8695    8.4550   -0.3574 H       1  UNL1        0.0618
     40 H           0.7425    7.3468   -0.9095 H       1  UNL1        0.0636
     41 H          -2.0522    3.6725    2.0276 H       1  UNL1        0.0482
     42 H          -1.0346    2.2402    2.3127 H       1  UNL1        0.0482
     43 H          -0.4325    3.8594    2.7417 H       1  UNL1        0.0482
@<TRIPOS>BOND
     1     1     2    1
     2     1    28    1
     3     1    29    1
     4     1    30    1
     5     2     3    1
     6     2     4    1
     7     2    17    1
     8     4     5    2
     9     4     6   am
    10     6     7    1
    11     6    31    1
    12     7    16   ar
    13     7     8   ar
    14     8     9   ar
    15     8    32    1
    16     9    10   ar
    17     9    33    1
    18    10    11    1
    19    10    15   ar
    20    11    12    1
    21    11    13    1
    22    11    14    1
    23    15    16   ar
    24    15    34    1
    25    16    35    1
    26    17    18    1
    27    24    17    1
    28    18    23   ar
    29    18    19   ar
    30    19    20   ar
    31    19    36    1
    32    20    21   ar
    33    20    37    1
    34    21    22   ar
    35    21    38    1
    36    22    23   ar
    37    22    39    1
    38    23    40    1
    39    24    25    1
    40    24    26    2
    41    24    27    2
    42    25    41    1
    43    25    42    1
    44    25    43    1
