@<TRIPOS>MOLECULE
ZINC000022652408
 51 53 0 0 0
SMALL
GASTEIGER

@<TRIPOS>ATOM
      1 C          -0.0184    1.5028    0.0103 C.3     1  UNL1       -0.0014
      2 C           0.0021   -0.0041    0.0020 C.2     1  UNL1        0.1601
      3 O           0.0203   -0.6159    1.0487 O.2     1  UNL1       -0.2924
      4 C          -0.0001   -0.7330   -1.2765 C.ar    1  UNL1        0.0172
      5 C          -0.0153   -0.0308   -2.4858 C.ar    1  UNL1       -0.0494
      6 C          -0.0173   -0.7210   -3.6795 C.ar    1  UNL1       -0.0347
      7 C          -0.0048   -2.1050   -3.6829 C.ar    1  UNL1        0.1055
      8 S          -0.0075   -2.9777   -5.2136 S.O2    1  UNL1        0.0609
      9 O          -0.5383   -4.2670   -4.9395 O.2     1  UNL1       -0.1528
     10 O          -0.5666   -2.0958   -6.1773 O.2     1  UNL1       -0.1528
     11 N           1.5735   -3.2061   -5.6504 N.3     1  UNL1       -0.1766
     12 C           2.2756   -2.2082   -6.4689 C.3     1  UNL1        0.0208
     13 C           3.5698   -1.8068   -5.7544 C.3     1  UNL1       -0.0354
     14 C           4.3913   -3.0621   -5.4518 C.3     1  UNL1       -0.0346
     15 C           5.7007   -2.6621   -4.7690 C.3     1  UNL1       -0.0248
     16 C           6.5633   -3.8836   -4.5819 C.ar    1  UNL1       -0.0471
     17 C           6.4543   -4.6365   -3.4277 C.ar    1  UNL1       -0.0580
     18 C           7.2454   -5.7570   -3.2561 C.ar    1  UNL1       -0.0499
     19 C           8.1453   -6.1248   -4.2389 C.ar    1  UNL1        0.0548
     20 C           9.0082   -7.3461   -4.0515 C.3     1  UNL1        0.4174
     21 F           8.3473   -8.4672   -4.5650 F       1  UNL1       -0.1659
     22 F          10.2201   -7.1689   -4.7276 F       1  UNL1       -0.1659
     23 F           9.2581   -7.5358   -2.6882 F       1  UNL1       -0.1659
     24 C           8.2533   -5.3727   -5.3937 C.ar    1  UNL1       -0.0499
     25 C           7.4594   -4.2544   -5.5669 C.ar    1  UNL1       -0.0580
     26 C           3.5946   -3.9844   -4.5262 C.3     1  UNL1       -0.0354
     27 C           2.3025   -4.4076   -5.2217 C.3     1  UNL1        0.0208
     28 C           0.0103   -2.8071   -2.4902 C.ar    1  UNL1       -0.0347
     29 C           0.0188   -2.1313   -1.2883 C.ar    1  UNL1       -0.0494
     30 H           1.0042    1.8801    0.0026 H       1  UNL1        0.0309
     31 H          -0.5455    1.8639   -0.8728 H       1  UNL1        0.0309
     32 H          -0.5286    1.8543    0.9071 H       1  UNL1        0.0309
     33 H          -0.0259    1.0491   -2.4848 H       1  UNL1        0.0625
     34 H          -0.0291   -0.1802   -4.6143 H       1  UNL1        0.0637
     35 H           2.5135   -2.6363   -7.4427 H       1  UNL1        0.0444
     36 H           1.6423   -1.3306   -6.5982 H       1  UNL1        0.0444
     37 H           4.1471   -1.1398   -6.3947 H       1  UNL1        0.0281
     38 H           3.3275   -1.2971   -4.8218 H       1  UNL1        0.0281
     39 H           4.6120   -3.5847   -6.3826 H       1  UNL1        0.0305
     40 H           6.2274   -1.9370   -5.3895 H       1  UNL1        0.0316
     41 H           5.4831   -2.2187   -3.7973 H       1  UNL1        0.0316
     42 H           5.7512   -4.3491   -2.6599 H       1  UNL1        0.0620
     43 H           7.1608   -6.3448   -2.3540 H       1  UNL1        0.0623
     44 H           8.9561   -5.6603   -6.1616 H       1  UNL1        0.0623
     45 H           7.5438   -3.6668   -6.4692 H       1  UNL1        0.0620
     46 H           4.1895   -4.8673   -4.2924 H       1  UNL1        0.0281
     47 H           3.3520   -3.4542   -3.6052 H       1  UNL1        0.0281
     48 H           1.6868   -4.9829   -4.5303 H       1  UNL1        0.0444
     49 H           2.5397   -5.0150   -6.0952 H       1  UNL1        0.0444
     50 H           0.0201   -3.8870   -2.5011 H       1  UNL1        0.0637
     51 H           0.0306   -2.6806   -0.3585 H       1  UNL1        0.0625
@<TRIPOS>BOND
     1     1     2    1
     2     1    30    1
     3     1    31    1
     4     1    32    1
     5     2     3    2
     6     2     4    1
     7     4    29   ar
     8     4     5   ar
     9     5     6   ar
    10     5    33    1
    11     6     7   ar
    12     6    34    1
    13     7     8    1
    14     7    28   ar
    15     8     9    2
    16     8    10    2
    17     8    11    1
    18    11    27    1
    19    11    12    1
    20    12    13    1
    21    12    35    1
    22    12    36    1
    23    13    14    1
    24    13    37    1
    25    13    38    1
    26    14    15    1
    27    14    26    1
    28    14    39    1
    29    15    16    1
    30    15    40    1
    31    15    41    1
    32    16    25   ar
    33    16    17   ar
    34    17    18   ar
    35    17    42    1
    36    18    19   ar
    37    18    43    1
    38    19    20    1
    39    19    24   ar
    40    20    21    1
    41    20    22    1
    42    20    23    1
    43    24    25   ar
    44    24    44    1
    45    25    45    1
    46    26    27    1
    47    26    46    1
    48    26    47    1
    49    27    48    1
    50    27    49    1
    51    28    29   ar
    52    28    50    1
    53    29    51    1
