@<TRIPOS>MOLECULE
ZINC000028207815
 62 63 0 0 0
SMALL
GASTEIGER

@<TRIPOS>ATOM
      1 C          -0.0187    1.5258    0.0104 C.3     1  UNL1       -0.0507
      2 C           0.0021   -0.0041    0.0020 C.3     1  UNL1        0.0177
      3 N          -1.3723   -0.5112    0.0124 N.3     1  UNL1       -0.1771
      4 C          -2.1099   -0.6542   -1.2453 C.3     1  UNL1        0.0177
      5 C          -1.7727   -2.0031   -1.8836 C.3     1  UNL1       -0.0507
      6 S          -2.0922   -0.9227    1.4458 S.O2    1  UNL1        0.0608
      7 O          -3.1196   -1.8512    1.1269 O.2     1  UNL1       -0.1528
      8 O          -1.0393   -1.2108    2.3555 O.2     1  UNL1       -0.1528
      9 C          -2.8978    0.5199    2.0580 C.ar    1  UNL1        0.1060
     10 C          -2.2145    1.3947    2.8819 C.ar    1  UNL1       -0.0319
     11 C          -2.8438    2.5268    3.3629 C.ar    1  UNL1       -0.0178
     12 C          -4.1623    2.7852    3.0183 C.ar    1  UNL1        0.1242
     13 O          -4.7833    3.8983    3.4897 O.3     1  UNL1       -0.4825
     14 C          -4.0182    4.7590    4.3357 C.3     1  UNL1        0.1652
     15 C          -4.8656    5.9316    4.7577 C.2     1  UNL1        0.2509
     16 O          -6.0119    6.0214    4.3719 O.2     1  UNL1       -0.2721
     17 N          -4.3495    6.8805    5.5637 N.am    1  UNL1       -0.3099
     18 C          -5.1733    8.0205    5.9739 C.3     1  UNL1        0.0207
     19 H          -6.2056    7.6951    6.1026 H       1  UNL1        0.0495
     20 C          -5.1114    9.1074    4.8990 C.3     1  UNL1       -0.0466
     21 C          -4.6465    8.5806    7.2966 C.3     1  UNL1       -0.0308
     22 C          -4.8237    7.5354    8.3998 C.3     1  UNL1       -0.0260
     23 C          -4.3048    8.0872    9.7026 C.ar    1  UNL1       -0.0473
     24 C          -2.9803    7.9028   10.0527 C.ar    1  UNL1       -0.0586
     25 C          -2.5043    8.4089   11.2478 C.ar    1  UNL1       -0.0615
     26 C          -3.3527    9.0998   12.0925 C.ar    1  UNL1       -0.0617
     27 C          -4.6770    9.2851   11.7420 C.ar    1  UNL1       -0.0615
     28 C          -5.1519    8.7827   10.5450 C.ar    1  UNL1       -0.0586
     29 C          -4.8460    1.9056    2.1912 C.ar    1  UNL1       -0.0069
     30 C          -6.2784    2.1836    1.8144 C.3     1  UNL1       -0.0362
     31 C          -4.2107    0.7780    1.7088 C.ar    1  UNL1       -0.0290
     32 H           1.0039    1.9031    0.0027 H       1  UNL1        0.0243
     33 H          -0.5459    1.8868   -0.8726 H       1  UNL1        0.0243
     34 H          -0.5289    1.8773    0.9072 H       1  UNL1        0.0243
     35 H           0.5123   -0.3556   -0.8948 H       1  UNL1        0.0441
     36 H           0.5293   -0.3651    0.8851 H       1  UNL1        0.0441
     37 H          -3.1804   -0.6037   -1.0465 H       1  UNL1        0.0441
     38 H          -1.8283    0.1500   -1.9251 H       1  UNL1        0.0441
     39 H          -0.7022   -2.0536   -2.0825 H       1  UNL1        0.0243
     40 H          -2.0544   -2.8073   -1.2038 H       1  UNL1        0.0243
     41 H          -2.3215   -2.1096   -2.8194 H       1  UNL1        0.0243
     42 H          -1.1880    1.1928    3.1502 H       1  UNL1        0.0638
     43 H          -2.3096    3.2097    4.0068 H       1  UNL1        0.0655
     44 H          -3.6955    4.2075    5.2188 H       1  UNL1        0.0795
     45 H          -3.1442    5.1190    3.7928 H       1  UNL1        0.0795
     46 H          -3.4327    6.8087    5.8723 H       1  UNL1        0.1491
     47 H          -5.4867    8.7084    3.9567 H       1  UNL1        0.0247
     48 H          -5.7243    9.9556    5.2042 H       1  UNL1        0.0247
     49 H          -4.0791    9.4328    4.7703 H       1  UNL1        0.0247
     50 H          -3.5890    8.8236    7.1928 H       1  UNL1        0.0286
     51 H          -5.2024    9.4814    7.5568 H       1  UNL1        0.0286
     52 H          -5.8812    7.2924    8.5036 H       1  UNL1        0.0314
     53 H          -4.2678    6.6347    8.1396 H       1  UNL1        0.0314
     54 H          -2.3174    7.3629    9.3927 H       1  UNL1        0.0620
     55 H          -1.4697    8.2642   11.5216 H       1  UNL1        0.0618
     56 H          -2.9810    9.4947   13.0265 H       1  UNL1        0.0618
     57 H          -5.3399    9.8246   12.4022 H       1  UNL1        0.0618
     58 H          -6.1866    8.9274   10.2712 H       1  UNL1        0.0620
     59 H          -6.3051    2.7770    0.9005 H       1  UNL1        0.0279
     60 H          -6.8006    1.2409    1.6510 H       1  UNL1        0.0279
     61 H          -6.7655    2.7340    2.6194 H       1  UNL1        0.0279
     62 H          -4.7423    0.0932    1.0646 H       1  UNL1        0.0641
@<TRIPOS>BOND
     1     1     2    1
     2     1    32    1
     3     1    33    1
     4     1    34    1
     5     2     3    1
     6     2    35    1
     7     2    36    1
     8     3     4    1
     9     6     3    1
    10     4     5    1
    11     4    37    1
    12     4    38    1
    13     5    39    1
    14     5    40    1
    15     5    41    1
    16     6     7    2
    17     6     8    2
    18     6     9    1
    19     9    31   ar
    20     9    10   ar
    21    10    11   ar
    22    10    42    1
    23    11    12   ar
    24    11    43    1
    25    12    13    1
    26    12    29   ar
    27    13    14    1
    28    14    15    1
    29    14    44    1
    30    14    45    1
    31    15    16    2
    32    15    17   am
    33    17    18    1
    34    17    46    1
    35    18    19    1
    36    18    20    1
    37    18    21    1
    38    20    47    1
    39    20    48    1
    40    20    49    1
    41    21    22    1
    42    21    50    1
    43    21    51    1
    44    22    23    1
    45    22    52    1
    46    22    53    1
    47    23    28   ar
    48    23    24   ar
    49    24    25   ar
    50    24    54    1
    51    25    26   ar
    52    25    55    1
    53    26    27   ar
    54    26    56    1
    55    27    28   ar
    56    27    57    1
    57    28    58    1
    58    29    30    1
    59    29    31   ar
    60    30    59    1
    61    30    60    1
    62    30    61    1
    63    31    62    1
