@<TRIPOS>MOLECULE
ZINC000096120093
 50 51 0 0 0
SMALL
GASTEIGER

@<TRIPOS>ATOM
      1 C           0.0344    1.2177    0.3199 C.3     1  UNL1       -0.0405
      2 C           0.0852   -0.3013    0.1438 C.3     1  UNL1        0.0798
      3 C           1.0025   -0.9076    1.2077 C.3     1  UNL1       -0.0405
      4 C          -1.3231   -0.8797    0.2949 C.3     1  UNL1       -0.0405
      5 S           0.7279   -0.6976   -1.5056 S.O2    1  UNL1       -0.0219
      6 O           0.7189   -2.1093   -1.6678 O.2     1  UNL1       -0.1735
      7 O           0.0578    0.1147   -2.4598 O.2     1  UNL1       -0.1735
      8 C           2.4499   -0.1411   -1.3806 C.3     1  UNL1        0.0945
      9 H           2.9145   -0.5170   -0.4690 H       1  UNL1        0.0552
     10 C           2.5411    1.4060   -1.4541 C.3     1  UNL1       -0.0133
     11 C           3.9603    1.6424   -2.0122 C.3     1  UNL1        0.0165
     12 N           4.3658    0.4129   -2.7089 N.am    1  UNL1       -0.2996
     13 C           5.5513    0.2090   -3.3167 C.2     1  UNL1        0.2159
     14 O           5.7787   -0.8499   -3.8626 O.2     1  UNL1       -0.2756
     15 C           6.5944    1.2967   -3.3179 C.3     1  UNL1        0.0281
     16 C           7.8361    0.8117   -4.0688 C.3     1  UNL1       -0.0194
     17 C           8.8792    1.8994   -4.0700 C.ar    1  UNL1       -0.0469
     18 C           8.9039    2.8321   -5.0900 C.ar    1  UNL1       -0.0580
     19 C           9.8607    3.8298   -5.0911 C.ar    1  UNL1       -0.0499
     20 C          10.7924    3.8951   -4.0720 C.ar    1  UNL1        0.0548
     21 C          11.8358    4.9825   -4.0735 C.3     1  UNL1        0.4174
     22 F          11.3484    6.0974   -3.3831 F       1  UNL1       -0.1659
     23 F          12.9962    4.5163   -3.4464 F       1  UNL1       -0.1659
     24 F          12.1313    5.3434   -5.3925 F       1  UNL1       -0.1659
     25 C          10.7668    2.9633   -3.0513 C.ar    1  UNL1       -0.0499
     26 C           9.8076    1.9678   -3.0482 C.ar    1  UNL1       -0.0580
     27 C           3.2614   -0.5613   -2.6314 C.3     1  UNL1        0.0369
     28 H           1.0494    1.6121    0.3679 H       1  UNL1        0.0251
     29 H          -0.4893    1.6641   -0.5255 H       1  UNL1        0.0251
     30 H          -0.4932    1.4591    1.2426 H       1  UNL1        0.0251
     31 H           0.5614   -0.7614    2.1937 H       1  UNL1        0.0251
     32 H           1.1233   -1.9742    1.0182 H       1  UNL1        0.0251
     33 H           1.9761   -0.4191    1.1692 H       1  UNL1        0.0251
     34 H          -1.9766   -0.4477   -0.4630 H       1  UNL1        0.0251
     35 H          -1.2869   -1.9618    0.1695 H       1  UNL1        0.0251
     36 H          -1.7093   -0.6415    1.2860 H       1  UNL1        0.0251
     37 H           1.7881    1.8049   -2.1337 H       1  UNL1        0.0299
     38 H           2.4386    1.8459   -0.4621 H       1  UNL1        0.0299
     39 H           3.9492    2.4783   -2.7116 H       1  UNL1        0.0465
     40 H           4.6505    1.8498   -1.1944 H       1  UNL1        0.0465
     41 H           6.1947    2.1828   -3.8110 H       1  UNL1        0.0362
     42 H           6.8639    1.5428   -2.2908 H       1  UNL1        0.0362
     43 H           8.2358   -0.0744   -3.5757 H       1  UNL1        0.0318
     44 H           7.5666    0.5656   -5.0959 H       1  UNL1        0.0318
     45 H           8.1760    2.7811   -5.8862 H       1  UNL1        0.0620
     46 H           9.8805    4.5581   -5.8884 H       1  UNL1        0.0623
     47 H          11.4945    3.0145   -2.2549 H       1  UNL1        0.0623
     48 H           9.7876    1.2398   -2.2507 H       1  UNL1        0.0620
     49 H           3.6539   -1.5707   -2.5088 H       1  UNL1        0.0483
     50 H           2.6391   -0.5011   -3.5243 H       1  UNL1        0.0483
@<TRIPOS>BOND
     1     1     2    1
     2     1    28    1
     3     1    29    1
     4     1    30    1
     5     2     3    1
     6     2     4    1
     7     2     5    1
     8     3    31    1
     9     3    32    1
    10     3    33    1
    11     4    34    1
    12     4    35    1
    13     4    36    1
    14     5     6    2
    15     5     7    2
    16     5     8    1
    17     8     9    1
    18     8    27    1
    19     8    10    1
    20    10    11    1
    21    10    37    1
    22    10    38    1
    23    11    12    1
    24    11    39    1
    25    11    40    1
    26    12    13   am
    27    12    27    1
    28    13    14    2
    29    13    15    1
    30    15    16    1
    31    15    41    1
    32    15    42    1
    33    16    17    1
    34    16    43    1
    35    16    44    1
    36    17    26   ar
    37    17    18   ar
    38    18    19   ar
    39    18    45    1
    40    19    20   ar
    41    19    46    1
    42    20    21    1
    43    20    25   ar
    44    21    22    1
    45    21    23    1
    46    21    24    1
    47    25    26   ar
    48    25    47    1
    49    26    48    1
    50    27    49    1
    51    27    50    1
