@<TRIPOS>MOLECULE
ZINC000020021229
 58 59 0 0 0
SMALL
GASTEIGER

@<TRIPOS>ATOM
      1 C          -0.0187    1.5258    0.0104 C.3     1  UNL1       -0.0507
      2 C           0.0021   -0.0041    0.0020 C.3     1  UNL1        0.0177
      3 N          -1.3723   -0.5112    0.0124 N.3     1  UNL1       -0.1771
      4 C          -2.1099   -0.6542   -1.2453 C.3     1  UNL1        0.0177
      5 C          -1.7727   -2.0031   -1.8836 C.3     1  UNL1       -0.0507
      6 S          -2.0922   -0.9227    1.4458 S.O2    1  UNL1        0.0608
      7 O          -3.1196   -1.8512    1.1269 O.2     1  UNL1       -0.1528
      8 O          -1.0393   -1.2108    2.3555 O.2     1  UNL1       -0.1528
      9 C          -2.8978    0.5199    2.0580 C.ar    1  UNL1        0.1057
     10 C          -2.2144    1.3948    2.8821 C.ar    1  UNL1       -0.0319
     11 C          -2.8437    2.5265    3.3633 C.ar    1  UNL1       -0.0181
     12 C          -4.1624    2.7850    3.0187 C.ar    1  UNL1        0.1213
     13 O          -4.7836    3.8979    3.4905 O.3     1  UNL1       -0.4828
     14 C          -6.1417    4.0999    3.0945 C.3     1  UNL1        0.1651
     15 C          -6.6600    5.3744    3.7095 C.2     1  UNL1        0.2509
     16 O          -5.9375    6.0437    4.4172 O.2     1  UNL1       -0.2721
     17 N          -7.9264    5.7703    3.4731 N.am    1  UNL1       -0.3084
     18 C          -8.4302    7.0092    4.0709 C.3     1  UNL1        0.0371
     19 C          -9.8625    7.2223    3.6533 C.ar    1  UNL1       -0.0266
     20 C         -10.1466    7.9287    2.4999 C.ar    1  UNL1       -0.0534
     21 C         -11.4592    8.1273    2.1127 C.ar    1  UNL1       -0.0160
     22 C         -12.4927    7.6173    2.8812 C.ar    1  UNL1        0.1615
     23 O         -13.7841    7.8114    2.5016 O.3     1  UNL1       -0.4915
     24 C         -14.0025    8.5508    1.2985 C.3     1  UNL1        0.0790
     25 C         -12.2065    6.9055    4.0427 C.ar    1  UNL1        0.1618
     26 O         -13.2177    6.4025    4.8002 O.3     1  UNL1       -0.4914
     27 C         -12.8494    5.6828    5.9785 C.3     1  UNL1        0.0790
     28 C         -10.8893    6.7057    4.4221 C.ar    1  UNL1       -0.0116
     29 C          -4.8459    1.9058    2.1913 C.ar    1  UNL1       -0.0181
     30 C          -4.2105    0.7780    1.7088 C.ar    1  UNL1       -0.0319
     31 H           1.0039    1.9031    0.0027 H       1  UNL1        0.0243
     32 H          -0.5459    1.8868   -0.8726 H       1  UNL1        0.0243
     33 H          -0.5289    1.8773    0.9072 H       1  UNL1        0.0243
     34 H           0.5123   -0.3556   -0.8948 H       1  UNL1        0.0441
     35 H           0.5293   -0.3651    0.8851 H       1  UNL1        0.0441
     36 H          -3.1804   -0.6037   -1.0465 H       1  UNL1        0.0441
     37 H          -1.8283    0.1500   -1.9251 H       1  UNL1        0.0441
     38 H          -0.7022   -2.0536   -2.0825 H       1  UNL1        0.0243
     39 H          -2.0544   -2.8073   -1.2038 H       1  UNL1        0.0243
     40 H          -2.3215   -2.1096   -2.8194 H       1  UNL1        0.0243
     41 H          -1.1877    1.1931    3.1500 H       1  UNL1        0.0638
     42 H          -2.3096    3.2093    4.0075 H       1  UNL1        0.0655
     43 H          -6.1966    4.1721    2.0083 H       1  UNL1        0.0795
     44 H          -6.7479    3.2600    3.4339 H       1  UNL1        0.0795
     45 H          -8.5043    5.2349    2.9071 H       1  UNL1        0.1491
     46 H          -8.3753    6.9370    5.1571 H       1  UNL1        0.0512
     47 H          -7.8240    7.8491    3.7315 H       1  UNL1        0.0512
     48 H          -9.3417    8.3268    1.8998 H       1  UNL1        0.0622
     49 H         -11.6785    8.6803    1.2113 H       1  UNL1        0.0655
     50 H         -15.0733    8.6324    1.1115 H       1  UNL1        0.0660
     51 H         -13.5747    9.5480    1.4021 H       1  UNL1        0.0660
     52 H         -13.5262    8.0360    0.4641 H       1  UNL1        0.0660
     53 H         -12.2351    4.8254    5.7035 H       1  UNL1        0.0660
     54 H         -12.2839    6.3370    6.6420 H       1  UNL1        0.0660
     55 H         -13.7483    5.3369    6.4889 H       1  UNL1        0.0660
     56 H         -10.6646    6.1537    5.3227 H       1  UNL1        0.0658
     57 H          -5.8726    2.1046    1.9219 H       1  UNL1        0.0655
     58 H          -4.7420    0.0934    1.0644 H       1  UNL1        0.0638
@<TRIPOS>BOND
     1     1     2    1
     2     1    31    1
     3     1    32    1
     4     1    33    1
     5     2     3    1
     6     2    34    1
     7     2    35    1
     8     3     4    1
     9     6     3    1
    10     4     5    1
    11     4    36    1
    12     4    37    1
    13     5    38    1
    14     5    39    1
    15     5    40    1
    16     6     7    2
    17     6     8    2
    18     6     9    1
    19     9    30   ar
    20     9    10   ar
    21    10    11   ar
    22    10    41    1
    23    11    12   ar
    24    11    42    1
    25    12    13    1
    26    12    29   ar
    27    13    14    1
    28    14    15    1
    29    14    43    1
    30    14    44    1
    31    15    16    2
    32    15    17   am
    33    17    18    1
    34    17    45    1
    35    18    19    1
    36    18    46    1
    37    18    47    1
    38    19    28   ar
    39    19    20   ar
    40    20    21   ar
    41    20    48    1
    42    21    22   ar
    43    21    49    1
    44    22    23    1
    45    22    25   ar
    46    23    24    1
    47    24    50    1
    48    24    51    1
    49    24    52    1
    50    25    26    1
    51    25    28   ar
    52    26    27    1
    53    27    53    1
    54    27    54    1
    55    27    55    1
    56    28    56    1
    57    29    30   ar
    58    29    57    1
    59    30    58    1
