@<TRIPOS>MOLECULE
ZINC000408781785
 60 61 0 0 0
SMALL
GASTEIGER

@<TRIPOS>ATOM
      1 C          -0.0187    1.5258    0.0104 C.3     1  UNL1       -0.0636
      2 C           0.0021   -0.0041    0.0020 C.3     1  UNL1       -0.0376
      3 C           0.7421   -0.5109    1.2415 C.3     1  UNL1        0.0201
      4 H           0.2852   -0.0874    2.1360 H       1  UNL1        0.0495
      5 C           0.6554   -2.0374    1.2986 C.3     1  UNL1       -0.0466
      6 N           2.1476   -0.1038    1.1716 N.am    1  UNL1       -0.3116
      7 C           2.8685    0.0265    2.3029 C.2     1  UNL1        0.2290
      8 O           2.3536   -0.1931    3.3788 O.2     1  UNL1       -0.2743
      9 C           4.3144    0.4453    2.2310 C.3     1  UNL1        0.0968
     10 N           4.8709    0.5137    3.5845 N.3     1  UNL1       -0.1675
     11 C           5.3986   -0.6954    4.2215 C.3     1  UNL1        0.0250
     12 C           6.8522   -0.9050    3.7926 C.3     1  UNL1       -0.0132
     13 C           7.3950   -2.1488    4.4479 C.ar    1  UNL1       -0.0461
     14 C           8.0083   -2.0673    5.6840 C.ar    1  UNL1       -0.0585
     15 C           8.5062   -3.2082    6.2851 C.ar    1  UNL1       -0.0615
     16 C           8.3904   -4.4306    5.6502 C.ar    1  UNL1       -0.0617
     17 C           7.7763   -4.5123    4.4145 C.ar    1  UNL1       -0.0615
     18 C           7.2745   -3.3720    3.8154 C.ar    1  UNL1       -0.0585
     19 S           4.9034    1.9578    4.3943 S.O2    1  UNL1        0.0614
     20 O           5.9374    1.8512    5.3632 O.2     1  UNL1       -0.1528
     21 O           4.8695    2.9749    3.4025 O.2     1  UNL1       -0.1528
     22 C           3.3924    2.0869    5.2913 C.ar    1  UNL1        0.1092
     23 C           2.2877    2.6708    4.7007 C.ar    1  UNL1       -0.0317
     24 C           1.0996    2.7750    5.4007 C.ar    1  UNL1       -0.0145
     25 C           1.0148    2.2930    6.6966 C.ar    1  UNL1        0.1616
     26 O          -0.1530    2.3942    7.3862 O.3     1  UNL1       -0.4915
     27 C          -1.2530    3.0093    6.7126 C.3     1  UNL1        0.0790
     28 C           2.1272    1.7045    7.2913 C.ar    1  UNL1        0.1633
     29 O           2.0487    1.2295    8.5631 O.3     1  UNL1       -0.4914
     30 C           3.2297    0.6383    9.1089 C.3     1  UNL1        0.0790
     31 C           3.3128    1.5987    6.5827 C.ar    1  UNL1        0.0101
     32 H           1.0039    1.9031    0.0027 H       1  UNL1        0.0230
     33 H          -0.5459    1.8868   -0.8726 H       1  UNL1        0.0230
     34 H          -0.5289    1.8773    0.9072 H       1  UNL1        0.0230
     35 H          -1.0205   -0.3814    0.0098 H       1  UNL1        0.0280
     36 H           0.5123   -0.3556   -0.8948 H       1  UNL1        0.0280
     37 H           1.1826   -2.3985    2.1817 H       1  UNL1        0.0247
     38 H          -0.3904   -2.3402    1.3506 H       1  UNL1        0.0247
     39 H           1.1123   -2.4609    0.4042 H       1  UNL1        0.0247
     40 H           2.5595    0.0718    0.3111 H       1  UNL1        0.1490
     41 H           4.8747   -0.2826    1.6441 H       1  UNL1        0.0539
     42 H           4.3858    1.4251    1.7588 H       1  UNL1        0.0539
     43 H           5.3517   -0.5853    5.3049 H       1  UNL1        0.0447
     44 H           4.8024   -1.5559    3.9176 H       1  UNL1        0.0447
     45 H           6.8991   -1.0151    2.7092 H       1  UNL1        0.0326
     46 H           7.4483   -0.0445    4.0965 H       1  UNL1        0.0326
     47 H           8.0988   -1.1122    6.1800 H       1  UNL1        0.0620
     48 H           8.9860   -3.1444    7.2506 H       1  UNL1        0.0618
     49 H           8.7800   -5.3219    6.1195 H       1  UNL1        0.0618
     50 H           7.6861   -5.4673    3.9183 H       1  UNL1        0.0618
     51 H           6.7947   -3.4358    2.8499 H       1  UNL1        0.0620
     52 H           2.3525    3.0470    3.6904 H       1  UNL1        0.0638
     53 H           0.2380    3.2323    4.9372 H       1  UNL1        0.0656
     54 H          -1.4921    2.4412    5.8136 H       1  UNL1        0.0660
     55 H          -2.1200    3.0261    7.3731 H       1  UNL1        0.0660
     56 H          -0.9860    4.0296    6.4374 H       1  UNL1        0.0660
     57 H           3.5265   -0.2129    8.4961 H       1  UNL1        0.0660
     58 H           4.0328    1.3752    9.1205 H       1  UNL1        0.0660
     59 H           3.0307    0.3017   10.1264 H       1  UNL1        0.0660
     60 H           4.1774    1.1425    7.0418 H       1  UNL1        0.0675
@<TRIPOS>BOND
     1     1     2    1
     2     1    32    1
     3     1    33    1
     4     1    34    1
     5     2     3    1
     6     2    35    1
     7     2    36    1
     8     3     4    1
     9     3     5    1
    10     3     6    1
    11     5    37    1
    12     5    38    1
    13     5    39    1
    14     6     7   am
    15     6    40    1
    16     7     8    2
    17     7     9    1
    18     9    10    1
    19     9    41    1
    20     9    42    1
    21    10    11    1
    22    19    10    1
    23    11    12    1
    24    11    43    1
    25    11    44    1
    26    12    13    1
    27    12    45    1
    28    12    46    1
    29    13    18   ar
    30    13    14   ar
    31    14    15   ar
    32    14    47    1
    33    15    16   ar
    34    15    48    1
    35    16    17   ar
    36    16    49    1
    37    17    18   ar
    38    17    50    1
    39    18    51    1
    40    19    20    2
    41    19    21    2
    42    19    22    1
    43    22    31   ar
    44    22    23   ar
    45    23    24   ar
    46    23    52    1
    47    24    25   ar
    48    24    53    1
    49    25    26    1
    50    25    28   ar
    51    26    27    1
    52    27    54    1
    53    27    55    1
    54    27    56    1
    55    28    29    1
    56    28    31   ar
    57    29    30    1
    58    30    57    1
    59    30    58    1
    60    30    59    1
    61    31    60    1
