@<TRIPOS>MOLECULE
ZINC000009462086
 56 58 0 0 0
SMALL
GASTEIGER

@<TRIPOS>ATOM
      1 C          -0.0187    1.5258    0.0104 C.3     1  UNL1       -0.0466
      2 C           0.0021   -0.0041    0.0020 C.3     1  UNL1        0.0206
      3 H           0.5293   -0.3651    0.8851 H       1  UNL1        0.0495
      4 C           0.7182   -0.4975   -1.2568 C.3     1  UNL1       -0.0308
      5 C           0.8493   -2.0210   -1.2049 C.3     1  UNL1       -0.0260
      6 C           1.5546   -2.5070   -2.4448 C.ar    1  UNL1       -0.0473
      7 C           0.8244   -2.8341   -3.5721 C.ar    1  UNL1       -0.0586
      8 C           1.4715   -3.2799   -4.7094 C.ar    1  UNL1       -0.0615
      9 C           2.8487   -3.3982   -4.7196 C.ar    1  UNL1       -0.0617
     10 C           3.5790   -3.0702   -3.5927 C.ar    1  UNL1       -0.0615
     11 C           2.9323   -2.6203   -2.4567 C.ar    1  UNL1       -0.0586
     12 N          -1.3723   -0.5112    0.0124 N.am    1  UNL1       -0.3116
     13 C          -2.0286   -0.6552    1.1807 C.2     1  UNL1        0.2290
     14 O          -1.4814   -0.3650    2.2235 O.2     1  UNL1       -0.2743
     15 C          -3.4424   -1.1768    1.1914 C.3     1  UNL1        0.0973
     16 N          -3.9291   -1.2403    2.5718 N.3     1  UNL1       -0.1605
     17 C          -4.5122   -0.0513    3.1983 C.3     1  UNL1        0.0790
     18 C          -5.9732    0.0399    2.8402 C.ar    1  UNL1        0.1205
     19 C          -6.9894   -0.4973    3.5388 C.ar    1  UNL1       -0.0194
     20 C          -8.1791   -0.1703    2.8484 C.ar    1  UNL1       -0.0236
     21 C          -7.8187    0.5471    1.7691 C.ar    1  UNL1        0.0921
     22 O          -6.4818    0.6762    1.7724 O.2     1  UNL1       -0.4665
     23 S          -3.8201   -2.6561    3.4239 S.O2    1  UNL1        0.0617
     24 O          -4.8130   -2.5912    4.4384 O.2     1  UNL1       -0.1528
     25 O          -3.7592   -3.6999    2.4616 O.2     1  UNL1       -0.1528
     26 C          -2.2637   -2.6493    4.2497 C.ar    1  UNL1        0.1056
     27 C          -1.1474   -3.1726    3.6243 C.ar    1  UNL1       -0.0340
     28 C           0.0738   -3.1676    4.2716 C.ar    1  UNL1       -0.0415
     29 C           0.1789   -2.6386    5.5457 C.ar    1  UNL1        0.0411
     30 CL          1.7125   -2.6314    6.3591 Cl      1  UNL1       -0.0835
     31 C          -0.9386   -2.1150    6.1711 C.ar    1  UNL1       -0.0415
     32 C          -2.1581   -2.1155    5.5206 C.ar    1  UNL1       -0.0340
     33 H           1.0039    1.9031    0.0027 H       1  UNL1        0.0247
     34 H          -0.5459    1.8868   -0.8726 H       1  UNL1        0.0247
     35 H          -0.5289    1.8773    0.9072 H       1  UNL1        0.0247
     36 H           0.1430   -0.2121   -2.1375 H       1  UNL1        0.0286
     37 H           1.7103   -0.0491   -1.3098 H       1  UNL1        0.0286
     38 H           1.4245   -2.3064   -0.3242 H       1  UNL1        0.0314
     39 H          -0.1428   -2.4694   -1.1520 H       1  UNL1        0.0314
     40 H          -0.2516   -2.7418   -3.5641 H       1  UNL1        0.0620
     41 H           0.9009   -3.5362   -5.5899 H       1  UNL1        0.0618
     42 H           3.3542   -3.7471   -5.6080 H       1  UNL1        0.0618
     43 H           4.6550   -3.1628   -3.6005 H       1  UNL1        0.0618
     44 H           3.5028   -2.3640   -1.5763 H       1  UNL1        0.0620
     45 H          -1.8100   -0.7432   -0.8215 H       1  UNL1        0.1490
     46 H          -4.0803   -0.5097    0.6116 H       1  UNL1        0.0539
     47 H          -3.4651   -2.1740    0.7520 H       1  UNL1        0.0539
     48 H          -4.4072   -0.1226    4.2809 H       1  UNL1        0.0524
     49 H          -3.9942    0.8387    2.8409 H       1  UNL1        0.0524
     50 H          -6.9114   -1.0691    4.4517 H       1  UNL1        0.0652
     51 H          -9.1843   -0.4443    3.1328 H       1  UNL1        0.0649
     52 H          -8.4907    0.9538    1.0279 H       1  UNL1        0.1029
     53 H          -1.2296   -3.5858    2.6299 H       1  UNL1        0.0637
     54 H           0.9457   -3.5768    3.7831 H       1  UNL1        0.0633
     55 H          -0.8572   -1.7023    7.1658 H       1  UNL1        0.0633
     56 H          -3.0305   -1.7065    6.0085 H       1  UNL1        0.0637
@<TRIPOS>BOND
     1     1     2    1
     2     1    33    1
     3     1    34    1
     4     1    35    1
     5     2     3    1
     6     2     4    1
     7     2    12    1
     8     4     5    1
     9     4    36    1
    10     4    37    1
    11     5     6    1
    12     5    38    1
    13     5    39    1
    14     6    11   ar
    15     6     7   ar
    16     7     8   ar
    17     7    40    1
    18     8     9   ar
    19     8    41    1
    20     9    10   ar
    21     9    42    1
    22    10    11   ar
    23    10    43    1
    24    11    44    1
    25    12    13   am
    26    12    45    1
    27    13    14    2
    28    13    15    1
    29    15    16    1
    30    15    46    1
    31    15    47    1
    32    16    17    1
    33    23    16    1
    34    17    18    1
    35    17    48    1
    36    17    49    1
    37    18    22   ar
    38    18    19   ar
    39    19    20   ar
    40    19    50    1
    41    20    21   ar
    42    20    51    1
    43    21    22   ar
    44    21    52    1
    45    23    24    2
    46    23    25    2
    47    23    26    1
    48    26    32   ar
    49    26    27   ar
    50    27    28   ar
    51    27    53    1
    52    28    29   ar
    53    28    54    1
    54    29    30    1
    55    29    31   ar
    56    31    32   ar
    57    31    55    1
    58    32    56    1
