@<TRIPOS>MOLECULE
ZINC000016576320
 62 64 0 0 0
SMALL
GASTEIGER

@<TRIPOS>ATOM
      1 C          -0.0187    1.5258    0.0104 C.3     1  UNL1       -0.0466
      2 C           0.0021   -0.0041    0.0020 C.3     1  UNL1        0.0206
      3 H           0.5123   -0.3556   -0.8948 H       1  UNL1        0.0495
      4 C           0.7421   -0.5109    1.2415 C.3     1  UNL1       -0.0308
      5 C           0.8719   -2.0337    1.1708 C.3     1  UNL1       -0.0260
      6 C           1.6008   -2.5330    2.3917 C.ar    1  UNL1       -0.0473
      7 C           2.9789   -2.6409    2.3781 C.ar    1  UNL1       -0.0586
      8 C           3.6475   -3.0988    3.4980 C.ar    1  UNL1       -0.0615
      9 C           2.9380   -3.4484    4.6317 C.ar    1  UNL1       -0.0617
     10 C           1.5600   -3.3396    4.6457 C.ar    1  UNL1       -0.0615
     11 C           0.8918   -2.8776    3.5272 C.ar    1  UNL1       -0.0586
     12 N          -1.3723   -0.5112    0.0124 N.am    1  UNL1       -0.3116
     13 C          -2.0508   -0.6427   -1.1446 C.2     1  UNL1        0.2290
     14 O          -1.5236   -0.3413   -2.1944 O.2     1  UNL1       -0.2743
     15 C          -3.4646   -1.1643   -1.1339 C.3     1  UNL1        0.0971
     16 N          -3.9776   -1.2130   -2.5053 N.3     1  UNL1       -0.1648
     17 C          -3.7030   -2.3787   -3.3491 C.3     1  UNL1        0.0324
     18 C          -2.1910   -2.5442   -3.5139 C.3     1  UNL1       -0.0357
     19 C          -1.9042   -3.7617   -4.3952 C.3     1  UNL1       -0.0516
     20 C          -2.4858   -5.0151   -3.7383 C.3     1  UNL1       -0.0530
     21 C          -3.9979   -4.8496   -3.5735 C.3     1  UNL1       -0.0516
     22 C          -4.2847   -3.6322   -2.6922 C.3     1  UNL1       -0.0357
     23 S          -4.8677    0.0496   -3.1018 S.O2    1  UNL1        0.0615
     24 O          -5.6571   -0.4796   -4.1582 O.2     1  UNL1       -0.1528
     25 O          -5.4223    0.7166   -1.9762 O.2     1  UNL1       -0.1528
     26 C          -3.7377    1.1801   -3.8431 C.ar    1  UNL1        0.1055
     27 C          -3.1777    2.1931   -3.0874 C.ar    1  UNL1       -0.0353
     28 C          -2.2912    3.0801   -3.6691 C.ar    1  UNL1       -0.0599
     29 C          -1.9643    2.9537   -5.0063 C.ar    1  UNL1       -0.0616
     30 C          -2.5237    1.9402   -5.7617 C.ar    1  UNL1       -0.0599
     31 C          -3.4069    1.0506   -5.1791 C.ar    1  UNL1       -0.0353
     32 H           1.0039    1.9031    0.0027 H       1  UNL1        0.0247
     33 H          -0.5459    1.8868   -0.8726 H       1  UNL1        0.0247
     34 H          -0.5289    1.8773    0.9072 H       1  UNL1        0.0247
     35 H           1.7350   -0.0630    1.2804 H       1  UNL1        0.0286
     36 H           0.1838   -0.2350    2.1361 H       1  UNL1        0.0286
     37 H          -0.1210   -2.4817    1.1320 H       1  UNL1        0.0314
     38 H           1.4302   -2.3096    0.2763 H       1  UNL1        0.0314
     39 H           3.5331   -2.3677    1.4923 H       1  UNL1        0.0620
     40 H           4.7241   -3.1838    3.4870 H       1  UNL1        0.0618
     41 H           3.4603   -3.8068    5.5064 H       1  UNL1        0.0618
     42 H           1.0057   -3.6130    5.5313 H       1  UNL1        0.0618
     43 H          -0.1848   -2.7926    3.5382 H       1  UNL1        0.0620
     44 H          -1.7940   -0.7522    0.8520 H       1  UNL1        0.1490
     45 H          -3.4790   -2.1662   -0.7048 H       1  UNL1        0.0539
     46 H          -4.0912   -0.5035   -0.5349 H       1  UNL1        0.0539
     47 H          -4.1616   -2.2352   -4.3275 H       1  UNL1        0.0480
     48 H          -1.7766   -1.6513   -3.9819 H       1  UNL1        0.0281
     49 H          -1.7324   -2.6878   -2.5356 H       1  UNL1        0.0281
     50 H          -2.3628   -3.6181   -5.3735 H       1  UNL1        0.0266
     51 H          -0.8270   -3.8796   -4.5126 H       1  UNL1        0.0266
     52 H          -2.2816   -5.8824   -4.3661 H       1  UNL1        0.0265
     53 H          -2.0273   -5.1587   -2.7599 H       1  UNL1        0.0265
     54 H          -4.4565   -4.7060   -4.5518 H       1  UNL1        0.0266
     55 H          -4.4123   -5.7426   -3.1055 H       1  UNL1        0.0266
     56 H          -3.8261   -3.7757   -1.7139 H       1  UNL1        0.0281
     57 H          -5.3619   -3.5143   -2.5748 H       1  UNL1        0.0281
     58 H          -3.4330    2.2918   -2.0427 H       1  UNL1        0.0637
     59 H          -1.8541    3.8719   -3.0788 H       1  UNL1        0.0618
     60 H          -1.2723    3.6471   -5.4609 H       1  UNL1        0.0618
     61 H          -2.2686    1.8417   -6.8066 H       1  UNL1        0.0618
     62 H          -3.8440    0.2588   -5.7693 H       1  UNL1        0.0637
@<TRIPOS>BOND
     1     1     2    1
     2     1    32    1
     3     1    33    1
     4     1    34    1
     5     2     3    1
     6     2     4    1
     7     2    12    1
     8     4     5    1
     9     4    35    1
    10     4    36    1
    11     5     6    1
    12     5    37    1
    13     5    38    1
    14     6    11   ar
    15     6     7   ar
    16     7     8   ar
    17     7    39    1
    18     8     9   ar
    19     8    40    1
    20     9    10   ar
    21     9    41    1
    22    10    11   ar
    23    10    42    1
    24    11    43    1
    25    12    13   am
    26    12    44    1
    27    13    14    2
    28    13    15    1
    29    15    16    1
    30    15    45    1
    31    15    46    1
    32    16    17    1
    33    23    16    1
    34    17    22    1
    35    17    18    1
    36    17    47    1
    37    18    19    1
    38    18    48    1
    39    18    49    1
    40    19    20    1
    41    19    50    1
    42    19    51    1
    43    20    21    1
    44    20    52    1
    45    20    53    1
    46    21    22    1
    47    21    54    1
    48    21    55    1
    49    22    56    1
    50    22    57    1
    51    23    24    2
    52    23    25    2
    53    23    26    1
    54    26    31   ar
    55    26    27   ar
    56    27    28   ar
    57    27    58    1
    58    28    29   ar
    59    28    59    1
    60    29    30   ar
    61    29    60    1
    62    30    31   ar
    63    30    61    1
    64    31    62    1
