@<TRIPOS>MOLECULE
ZINC000408608117
 62 64 0 0 0
SMALL
GASTEIGER

@<TRIPOS>ATOM
      1 C          -0.0184    1.5028    0.0103 C.3     1  UNL1       -0.0397
      2 C           0.0021   -0.0041    0.0020 C.ar    1  UNL1       -0.0503
      3 C           0.0057   -0.6887   -1.1989 C.ar    1  UNL1       -0.0570
      4 C           0.0245   -2.0709   -1.2065 C.ar    1  UNL1       -0.0351
      5 C           0.0400   -2.7685   -0.0132 C.ar    1  UNL1        0.1055
      6 S           0.0633   -4.5303   -0.0229 S.O2    1  UNL1        0.0616
      7 O          -0.4690   -4.9455    1.2275 O.2     1  UNL1       -0.1528
      8 O          -0.4824   -4.9319   -1.2719 O.2     1  UNL1       -0.1528
      9 N           1.6514   -4.9995   -0.0340 N.3     1  UNL1       -0.1634
     10 C           2.3607   -5.2139    1.2298 C.3     1  UNL1        0.0971
     11 C           2.3054   -6.6748    1.5953 C.2     1  UNL1        0.2290
     12 O           1.7301   -7.4597    0.8714 O.2     1  UNL1       -0.2743
     13 N           2.8952   -7.1093    2.7267 N.am    1  UNL1       -0.3116
     14 C           2.8414   -8.5295    3.0820 C.3     1  UNL1        0.0206
     15 H           2.8855   -9.1328    2.1752 H       1  UNL1        0.0495
     16 C           1.5359   -8.8203    3.8250 C.3     1  UNL1       -0.0466
     17 C           4.0287   -8.8752    3.9828 C.3     1  UNL1       -0.0308
     18 C           5.3311   -8.7032    3.1984 C.3     1  UNL1       -0.0260
     19 C           6.5006   -9.0437    4.0857 C.ar    1  UNL1       -0.0473
     20 C           7.0965   -8.0594    4.8519 C.ar    1  UNL1       -0.0586
     21 C           8.1693   -8.3718    5.6658 C.ar    1  UNL1       -0.0615
     22 C           8.6459   -9.6684    5.7139 C.ar    1  UNL1       -0.0617
     23 C           8.0495  -10.6529    4.9484 C.ar    1  UNL1       -0.0615
     24 C           6.9740  -10.3415    4.1377 C.ar    1  UNL1       -0.0586
     25 C           2.3471   -5.2001   -1.3075 C.3     1  UNL1        0.0488
     26 C           3.0899   -3.9422   -1.6778 C.ar    1  UNL1        0.0035
     27 C           2.5474   -3.0643   -2.5967 C.ar    1  UNL1       -0.0546
     28 C           3.2287   -1.9102   -2.9366 C.ar    1  UNL1       -0.0613
     29 C           4.4532   -1.6334   -2.3582 C.ar    1  UNL1       -0.0590
     30 C           4.9980   -2.5103   -1.4392 C.ar    1  UNL1       -0.0261
     31 C           4.3137   -3.6629   -1.0931 C.ar    1  UNL1        0.1278
     32 F           4.8453   -4.5207   -0.1949 F       1  UNL1       -0.2052
     33 C           0.0378   -2.0839    1.1877 C.ar    1  UNL1       -0.0351
     34 C           0.0229   -0.7016    1.1953 C.ar    1  UNL1       -0.0570
     35 H           1.0042    1.8801    0.0026 H       1  UNL1        0.0278
     36 H          -0.5455    1.8639   -0.8728 H       1  UNL1        0.0278
     37 H          -0.5286    1.8543    0.9071 H       1  UNL1        0.0278
     38 H          -0.0064   -0.1436   -2.1312 H       1  UNL1        0.0621
     39 H           0.0266   -2.6057   -2.1448 H       1  UNL1        0.0637
     40 H           3.4005   -4.9060    1.1197 H       1  UNL1        0.0539
     41 H           1.8886   -4.6246    2.0159 H       1  UNL1        0.0539
     42 H           3.3552   -6.4816    3.3056 H       1  UNL1        0.1490
     43 H           0.6899   -8.5740    3.1832 H       1  UNL1        0.0247
     44 H           1.4958   -9.8770    4.0893 H       1  UNL1        0.0247
     45 H           1.4917   -8.2170    4.7317 H       1  UNL1        0.0247
     46 H           4.0347   -8.2109    4.8470 H       1  UNL1        0.0286
     47 H           3.9409   -9.9082    4.3192 H       1  UNL1        0.0286
     48 H           5.3251   -9.3675    2.3342 H       1  UNL1        0.0314
     49 H           5.4189   -7.6702    2.8620 H       1  UNL1        0.0314
     50 H           6.7241   -7.0464    4.8143 H       1  UNL1        0.0620
     51 H           8.6353   -7.6026    6.2639 H       1  UNL1        0.0618
     52 H           9.4845   -9.9123    6.3492 H       1  UNL1        0.0618
     53 H           8.4221  -11.6659    4.9857 H       1  UNL1        0.0618
     54 H           6.5080  -11.1106    3.5397 H       1  UNL1        0.0620
     55 H           3.0540   -6.0240   -1.2095 H       1  UNL1        0.0494
     56 H           1.6206   -5.4353   -2.0853 H       1  UNL1        0.0494
     57 H           1.5910   -3.2799   -3.0498 H       1  UNL1        0.0622
     58 H           2.8039   -1.2246   -3.6549 H       1  UNL1        0.0618
     59 H           4.9846   -0.7317   -2.6248 H       1  UNL1        0.0618
     60 H           5.9551   -2.2941   -0.9879 H       1  UNL1        0.0646
     61 H           0.0503   -2.6289    2.1200 H       1  UNL1        0.0637
     62 H           0.0211   -0.1667    2.1335 H       1  UNL1        0.0621
@<TRIPOS>BOND
     1     1     2    1
     2     1    35    1
     3     1    36    1
     4     1    37    1
     5     2    34   ar
     6     2     3   ar
     7     3     4   ar
     8     3    38    1
     9     4     5   ar
    10     4    39    1
    11     5     6    1
    12     5    33   ar
    13     6     7    2
    14     6     8    2
    15     6     9    1
    16     9    10    1
    17     9    25    1
    18    10    11    1
    19    10    40    1
    20    10    41    1
    21    11    12    2
    22    11    13   am
    23    13    14    1
    24    13    42    1
    25    14    15    1
    26    14    16    1
    27    14    17    1
    28    16    43    1
    29    16    44    1
    30    16    45    1
    31    17    18    1
    32    17    46    1
    33    17    47    1
    34    18    19    1
    35    18    48    1
    36    18    49    1
    37    19    24   ar
    38    19    20   ar
    39    20    21   ar
    40    20    50    1
    41    21    22   ar
    42    21    51    1
    43    22    23   ar
    44    22    52    1
    45    23    24   ar
    46    23    53    1
    47    24    54    1
    48    25    26    1
    49    25    55    1
    50    25    56    1
    51    26    31   ar
    52    26    27   ar
    53    27    28   ar
    54    27    57    1
    55    28    29   ar
    56    28    58    1
    57    29    30   ar
    58    29    59    1
    59    30    31   ar
    60    30    60    1
    61    31    32    1
    62    33    34   ar
    63    33    61    1
    64    34    62    1
