@<TRIPOS>MOLECULE
ZINC000003195647
 35 35 0 0 0
SMALL
GASTEIGER

@<TRIPOS>ATOM
      1 C          -0.0187    1.5258    0.0104 C.3     1  UNL1       -0.0507
      2 C           0.0021   -0.0041    0.0020 C.3     1  UNL1        0.0177
      3 N           0.6878   -0.4765   -1.2033 N.3     1  UNL1       -0.1771
      4 C           2.1478   -0.5966   -1.2159 C.3     1  UNL1        0.0177
      5 C           2.5532   -1.9514   -0.6319 C.3     1  UNL1       -0.0507
      6 S          -0.1875   -0.8749   -2.5515 S.O2    1  UNL1        0.0608
      7 O           0.6166   -1.7761   -3.3001 O.2     1  UNL1       -0.1528
      8 O          -1.4970   -1.1925   -2.1004 O.2     1  UNL1       -0.1528
      9 C          -0.3375    0.5853   -3.5262 C.ar    1  UNL1        0.1057
     10 C          -1.4064    1.4399   -3.3289 C.ar    1  UNL1       -0.0319
     11 C          -1.5263    2.5854   -4.0918 C.ar    1  UNL1       -0.0181
     12 C          -0.5728    2.8781   -5.0561 C.ar    1  UNL1        0.1214
     13 O          -0.6883    4.0045   -5.8076 O.3     1  UNL1       -0.4806
     14 C           0.3301    4.2420   -6.7815 C.3     1  UNL1        0.1900
     15 C           0.0367    5.5269   -7.5122 C.2     1  UNL1        0.3927
     16 O          -0.9529    6.1789   -7.2255 O.co2   1  UNL1       -0.2425
     17 O           0.7888    5.9145   -8.3900 O.co2   1  UNL1       -0.2425
     18 C           0.4989    2.0192   -5.2518 C.ar    1  UNL1       -0.0181
     19 C           0.6169    0.8775   -4.4830 C.ar    1  UNL1       -0.0319
     20 H           1.0039    1.9031    0.0027 H       1  UNL1        0.0243
     21 H          -0.5459    1.8868   -0.8726 H       1  UNL1        0.0243
     22 H          -0.5289    1.8773    0.9072 H       1  UNL1        0.0243
     23 H           0.5293   -0.3651    0.8851 H       1  UNL1        0.0441
     24 H          -1.0205   -0.3814    0.0098 H       1  UNL1        0.0441
     25 H           2.5098   -0.5199   -2.2412 H       1  UNL1        0.0441
     26 H           2.5833    0.2026   -0.6162 H       1  UNL1        0.0441
     27 H           2.1912   -2.0280    0.3934 H       1  UNL1        0.0243
     28 H           2.1177   -2.7506   -1.2316 H       1  UNL1        0.0243
     29 H           3.6395   -2.0407   -0.6413 H       1  UNL1        0.0243
     30 H          -2.1483    1.2116   -2.5781 H       1  UNL1        0.0638
     31 H          -2.3617    3.2523   -3.9379 H       1  UNL1        0.0655
     32 H           1.2971    4.3193   -6.2845 H       1  UNL1        0.0817
     33 H           0.3522    3.4164   -7.4928 H       1  UNL1        0.0817
     34 H           1.2423    2.2447   -6.0021 H       1  UNL1        0.0655
     35 H           1.4512    0.2087   -4.6347 H       1  UNL1        0.0638
@<TRIPOS>BOND
     1     1     2    1
     2     1    20    1
     3     1    21    1
     4     1    22    1
     5     2     3    1
     6     2    23    1
     7     2    24    1
     8     3     4    1
     9     6     3    1
    10     4     5    1
    11     4    25    1
    12     4    26    1
    13     5    27    1
    14     5    28    1
    15     5    29    1
    16     6     7    2
    17     6     8    2
    18     6     9    1
    19     9    19   ar
    20     9    10   ar
    21    10    11   ar
    22    10    30    1
    23    11    12   ar
    24    11    31    1
    25    12    13    1
    26    12    18   ar
    27    13    14    1
    28    14    15    1
    29    14    32    1
    30    14    33    1
    31    15    16   ar
    32    15    17   ar
    33    18    19   ar
    34    18    34    1
    35    19    35    1
