@<TRIPOS>MOLECULE
ZINC000096479546
 43 44 0 0 0
SMALL
GASTEIGER

@<TRIPOS>ATOM
      1 C          -0.0187    1.5258    0.0104 C.3     1  UNL1       -0.0580
      2 C           0.0021   -0.0041    0.0020 C.3     1  UNL1       -0.0104
      3 H           0.5293   -0.3651    0.8851 H       1  UNL1        0.0351
      4 C           0.7182   -0.4975   -1.2568 C.3     1  UNL1        0.0307
      5 C           2.1652   -0.0794   -1.2080 C.2     1  UNL1        0.2161
      6 O           2.5826    0.5511   -0.2598 O.2     1  UNL1       -0.2756
      7 N           2.9955   -0.4062   -2.2181 N.am    1  UNL1       -0.3007
      8 C           2.5032   -1.1644   -3.3763 C.3     1  UNL1        0.0147
      9 C           2.8594   -0.3988   -4.6544 C.3     1  UNL1       -0.0363
     10 C           4.3647   -0.1239   -4.6769 C.3     1  UNL1       -0.0371
     11 C           4.7450    0.7417   -3.4735 C.3     1  UNL1        0.0764
     12 H           4.1845    1.6760   -3.5058 H       1  UNL1        0.0430
     13 C           6.2217    1.0394   -3.5146 C.2     1  UNL1        0.3605
     14 O           6.6975    1.6340   -4.4668 O.co2   1  UNL1       -0.2460
     15 O           6.9407    0.6857   -2.5957 O.co2   1  UNL1       -0.2460
     16 C           4.4088   -0.0057   -2.1848 C.3     1  UNL1        0.0277
     17 C          -1.4117   -0.5257    0.0127 C.ar    1  UNL1       -0.0441
     18 C          -2.2755   -0.2024   -1.0170 C.ar    1  UNL1       -0.0578
     19 C          -3.5724   -0.6809   -1.0072 C.ar    1  UNL1       -0.0499
     20 C          -4.0053   -1.4830    0.0321 C.ar    1  UNL1        0.0548
     21 C          -5.4193   -2.0042    0.0430 C.3     1  UNL1        0.4174
     22 F          -5.4672   -3.2364   -0.6178 F       1  UNL1       -0.1659
     23 F          -5.8459   -2.1673    1.3654 F       1  UNL1       -0.1659
     24 F          -6.2573   -1.0928   -0.6083 F       1  UNL1       -0.1659
     25 C          -3.1411   -1.8074    1.0611 C.ar    1  UNL1       -0.0499
     26 C          -1.8431   -1.3321    1.0493 C.ar    1  UNL1       -0.0578
     27 H           1.0039    1.9031    0.0027 H       1  UNL1        0.0236
     28 H          -0.5459    1.8868   -0.8726 H       1  UNL1        0.0236
     29 H          -0.5289    1.8773    0.9072 H       1  UNL1        0.0236
     30 H           0.6556   -1.5845   -1.3079 H       1  UNL1        0.0364
     31 H           0.2444   -0.0644   -2.1377 H       1  UNL1        0.0364
     32 H           2.9736   -2.1475   -3.3962 H       1  UNL1        0.0464
     33 H           1.4212   -1.2761   -3.3068 H       1  UNL1        0.0464
     34 H           2.5855   -0.9957   -5.5244 H       1  UNL1        0.0281
     35 H           2.3166    0.5462   -4.6756 H       1  UNL1        0.0281
     36 H           4.9070   -1.0683   -4.6308 H       1  UNL1        0.0274
     37 H           4.6246    0.3992   -5.5972 H       1  UNL1        0.0274
     38 H           4.5855    0.6449   -1.3283 H       1  UNL1        0.0472
     39 H           5.0329   -0.8958   -2.1052 H       1  UNL1        0.0472
     40 H          -1.9373    0.4243   -1.8289 H       1  UNL1        0.0620
     41 H          -4.2475   -0.4277   -1.8113 H       1  UNL1        0.0623
     42 H          -3.4793   -2.4344    1.8729 H       1  UNL1        0.0623
     43 H          -1.1679   -1.5855    1.8533 H       1  UNL1        0.0620
@<TRIPOS>BOND
     1     1     2    1
     2     1    27    1
     3     1    28    1
     4     1    29    1
     5     2     3    1
     6     2     4    1
     7     2    17    1
     8     4     5    1
     9     4    30    1
    10     4    31    1
    11     5     6    2
    12     5     7   am
    13     7    16    1
    14     7     8    1
    15     8     9    1
    16     8    32    1
    17     8    33    1
    18     9    10    1
    19     9    34    1
    20     9    35    1
    21    10    11    1
    22    10    36    1
    23    10    37    1
    24    11    12    1
    25    11    13    1
    26    11    16    1
    27    13    14   ar
    28    13    15   ar
    29    16    38    1
    30    16    39    1
    31    17    26   ar
    32    17    18   ar
    33    18    19   ar
    34    18    40    1
    35    19    20   ar
    36    19    41    1
    37    20    21    1
    38    20    25   ar
    39    21    22    1
    40    21    23    1
    41    21    24    1
    42    25    26   ar
    43    25    42    1
    44    26    43    1
