@<TRIPOS>MOLECULE
ZINC000226857008
 49 51 0 0 0
SMALL
GASTEIGER

@<TRIPOS>ATOM
      1 C          -0.2774    0.4556    0.6817 C.3     1  UNL1        0.0788
      2 O          -0.0189   -0.9366    0.4895 O.3     1  UNL1       -0.4943
      3 C           0.5781   -1.2972   -0.6733 C.ar    1  UNL1        0.1343
      4 C           0.9158   -0.3332   -1.6114 C.ar    1  UNL1       -0.0173
      5 C           1.5241   -0.7018   -2.7949 C.ar    1  UNL1       -0.0318
      6 C           1.8022   -2.0338   -3.0558 C.ar    1  UNL1        0.1065
      7 S           2.5795   -2.4867   -4.5708 S.O2    1  UNL1        0.0614
      8 O           2.0993   -3.7839   -4.8962 O.2     1  UNL1       -0.1528
      9 O           2.4486   -1.3692   -5.4387 O.2     1  UNL1       -0.1528
     10 N           4.1980   -2.6512   -4.2614 N.3     1  UNL1       -0.1680
     11 C           4.7152   -3.9082   -3.7147 C.3     1  UNL1        0.0459
     12 C           5.2085   -4.7803   -4.8404 C.ar    1  UNL1       -0.0317
     13 C           4.3452   -5.6662   -5.4576 C.ar    1  UNL1       -0.0573
     14 C           4.7977   -6.4661   -6.4902 C.ar    1  UNL1       -0.0615
     15 C           6.1133   -6.3799   -6.9058 C.ar    1  UNL1       -0.0617
     16 C           6.9763   -5.4934   -6.2892 C.ar    1  UNL1       -0.0615
     17 C           6.5227   -4.6904   -5.2595 C.ar    1  UNL1       -0.0573
     18 C           5.1127   -1.5399   -4.5343 C.3     1  UNL1        0.0459
     19 C           5.3579   -0.7675   -3.2637 C.ar    1  UNL1       -0.0317
     20 C           4.5663    0.3226   -2.9539 C.ar    1  UNL1       -0.0573
     21 C           4.7912    1.0312   -1.7884 C.ar    1  UNL1       -0.0615
     22 C           5.8073    0.6493   -0.9326 C.ar    1  UNL1       -0.0617
     23 C           6.5983   -0.4414   -1.2419 C.ar    1  UNL1       -0.0615
     24 C           6.3707   -1.1525   -2.4053 C.ar    1  UNL1       -0.0573
     25 C           1.4744   -3.0058   -2.1363 C.ar    1  UNL1       -0.0177
     26 C           0.8627   -2.6471   -0.9310 C.ar    1  UNL1        0.1065
     27 C           0.5095   -3.6798    0.0562 C.2     1  UNL1        0.3901
     28 O           0.7509   -4.8564   -0.1763 O.co2   1  UNL1       -0.2405
     29 O          -0.0255   -3.3617    1.1094 O.co2   1  UNL1       -0.2405
     30 H           0.6623    1.0071    0.6517 H       1  UNL1        0.0660
     31 H          -0.9354    0.8155   -0.1093 H       1  UNL1        0.0660
     32 H          -0.7563    0.6061    1.6492 H       1  UNL1        0.0660
     33 H           0.7022    0.7073   -1.4161 H       1  UNL1        0.0655
     34 H           1.7846    0.0531   -3.5220 H       1  UNL1        0.0638
     35 H           5.5380   -3.6962   -3.0320 H       1  UNL1        0.0493
     36 H           3.9204   -4.4246   -3.1765 H       1  UNL1        0.0493
     37 H           3.3174   -5.7335   -5.1329 H       1  UNL1        0.0621
     38 H           4.1235   -7.1588   -6.9720 H       1  UNL1        0.0618
     39 H           6.4670   -7.0054   -7.7121 H       1  UNL1        0.0618
     40 H           8.0042   -5.4263   -6.6137 H       1  UNL1        0.0618
     41 H           7.1969   -3.9978   -4.7777 H       1  UNL1        0.0621
     42 H           6.0582   -1.9313   -4.9097 H       1  UNL1        0.0493
     43 H           4.6704   -0.8803   -5.2809 H       1  UNL1        0.0493
     44 H           3.7724    0.6210   -3.6226 H       1  UNL1        0.0621
     45 H           4.1732    1.8833   -1.5467 H       1  UNL1        0.0618
     46 H           5.9835    1.2033   -0.0224 H       1  UNL1        0.0618
     47 H           7.3924   -0.7395   -0.5734 H       1  UNL1        0.0618
     48 H           6.9886   -2.0046   -2.6470 H       1  UNL1        0.0621
     49 H           1.6933   -4.0428   -2.3442 H       1  UNL1        0.0646
@<TRIPOS>BOND
     1     1     2    1
     2     1    30    1
     3     1    31    1
     4     1    32    1
     5     2     3    1
     6     3    26   ar
     7     3     4   ar
     8     4     5   ar
     9     4    33    1
    10     5     6   ar
    11     5    34    1
    12     6     7    1
    13     6    25   ar
    14     7     8    2
    15     7     9    2
    16     7    10    1
    17    10    11    1
    18    10    18    1
    19    11    12    1
    20    11    35    1
    21    11    36    1
    22    12    17   ar
    23    12    13   ar
    24    13    14   ar
    25    13    37    1
    26    14    15   ar
    27    14    38    1
    28    15    16   ar
    29    15    39    1
    30    16    17   ar
    31    16    40    1
    32    17    41    1
    33    18    19    1
    34    18    42    1
    35    18    43    1
    36    19    24   ar
    37    19    20   ar
    38    20    21   ar
    39    20    44    1
    40    21    22   ar
    41    21    45    1
    42    22    23   ar
    43    22    46    1
    44    23    24   ar
    45    23    47    1
    46    24    48    1
    47    25    26   ar
    48    25    49    1
    49    26    27    1
    50    27    28   ar
    51    27    29   ar
