@<TRIPOS>MOLECULE
ZINC000071415932
 39 40 0 0 0
SMALL
GASTEIGER

@<TRIPOS>ATOM
      1 C           0.0587    1.4926    0.7548 C.3     1  UNL1       -0.0623
      2 C           0.0617   -0.0279    0.5848 C.3     1  UNL1       -0.0415
      3 C           0.6890   -0.3889   -0.7636 C.3     1  UNL1       -0.0359
      4 C           0.6588   -1.9097   -0.9455 C.3     1  UNL1        0.0207
      5 N           1.3121   -2.5373    0.2113 N.3     1  UNL1       -0.1766
      6 S           2.5506   -3.6158   -0.0016 S.O2    1  UNL1        0.0614
      7 O           2.6738   -4.3315    1.2198 O.2     1  UNL1       -0.1528
      8 O           2.3213   -4.2482   -1.2533 O.2     1  UNL1       -0.1528
      9 C           4.0324   -2.6795   -0.1813 C.ar    1  UNL1        0.1176
     10 C           4.0458   -1.3371    0.1473 C.ar    1  UNL1       -0.0232
     11 C           5.2085   -0.6025    0.0063 C.ar    1  UNL1        0.0567
     12 C           5.2229    0.8614    0.3641 C.3     1  UNL1        0.4175
     13 F           5.5704    1.0088    1.7112 F       1  UNL1       -0.1659
     14 F           6.1588    1.5274   -0.4345 F       1  UNL1       -0.1659
     15 F           3.9530    1.4069    0.1476 F       1  UNL1       -0.1659
     16 C           6.3577   -1.2107   -0.4623 C.ar    1  UNL1       -0.0495
     17 C           6.3445   -2.5537   -0.7906 C.ar    1  UNL1       -0.0477
     18 C           5.1832   -3.2891   -0.6456 C.ar    1  UNL1        0.0811
     19 C           5.1688   -4.7529   -1.0033 C.3     1  UNL1        0.4192
     20 F           6.4657   -5.1671   -1.3252 F       1  UNL1       -0.1658
     21 F           4.6993   -5.4946    0.0860 F       1  UNL1       -0.1658
     22 F           4.3280   -4.9560   -2.1029 F       1  UNL1       -0.1658
     23 C           0.8459   -2.1895    1.5605 C.3     1  UNL1        0.0207
     24 C           0.8740   -0.6656    1.7143 C.3     1  UNL1       -0.0359
     25 H           1.0828    1.8641    0.7205 H       1  UNL1        0.0232
     26 H          -0.5198    1.9470   -0.0495 H       1  UNL1        0.0232
     27 H          -0.3892    1.7500    1.7147 H       1  UNL1        0.0232
     28 H          -0.9625   -0.3992    0.6197 H       1  UNL1        0.0299
     29 H           0.1237    0.0847   -1.5663 H       1  UNL1        0.0281
     30 H           1.7212   -0.0397   -0.7898 H       1  UNL1        0.0281
     31 H          -0.3748   -2.2496   -1.0103 H       1  UNL1        0.0444
     32 H           1.1922   -2.1793   -1.8571 H       1  UNL1        0.0444
     33 H           3.1479   -0.8619    0.5138 H       1  UNL1        0.0643
     34 H           7.2660   -0.6368   -0.5725 H       1  UNL1        0.0623
     35 H           7.2424   -3.0289   -1.1571 H       1  UNL1        0.0624
     36 H          -0.1724   -2.5522    1.7001 H       1  UNL1        0.0444
     37 H           1.5027   -2.6438    2.3024 H       1  UNL1        0.0444
     38 H           1.9045   -0.3138    1.6647 H       1  UNL1        0.0281
     39 H           0.4404   -0.3889    2.6753 H       1  UNL1        0.0281
@<TRIPOS>BOND
     1     1     2    1
     2     1    25    1
     3     1    26    1
     4     1    27    1
     5     2    24    1
     6     2     3    1
     7     2    28    1
     8     3     4    1
     9     3    29    1
    10     3    30    1
    11     4     5    1
    12     4    31    1
    13     4    32    1
    14     6     5    1
    15     5    23    1
    16     6     7    2
    17     6     8    2
    18     6     9    1
    19     9    18   ar
    20     9    10   ar
    21    10    11   ar
    22    10    33    1
    23    11    12    1
    24    11    16   ar
    25    12    13    1
    26    12    14    1
    27    12    15    1
    28    16    17   ar
    29    16    34    1
    30    17    18   ar
    31    17    35    1
    32    18    19    1
    33    19    20    1
    34    19    21    1
    35    19    22    1
    36    23    24    1
    37    23    36    1
    38    23    37    1
    39    24    38    1
    40    24    39    1
