@<TRIPOS>MOLECULE
ZINC000408620140
 66 68 0 0 0
SMALL
GASTEIGER

@<TRIPOS>ATOM
      1 C          -2.2860  -12.3803    5.7560 C.3     1  UNL1       -0.0307
      2 C          -1.4846  -11.1342    5.3741 C.3     1  UNL1        0.0868
      3 O          -1.6279  -10.8862    3.9741 O.3     1  UNL1       -0.4922
      4 C          -0.9741   -9.8074    3.4684 C.ar    1  UNL1        0.1206
      5 C          -0.2057   -9.0074    4.3015 C.ar    1  UNL1       -0.0181
      6 C           0.4583   -7.9116    3.7850 C.ar    1  UNL1       -0.0319
      7 C           0.3572   -7.6117    2.4391 C.ar    1  UNL1        0.1057
      8 S           1.2049   -6.2131    1.7835 S.O2    1  UNL1        0.0616
      9 O           0.4389   -5.7632    0.6744 O.2     1  UNL1       -0.1528
     10 O           1.5288   -5.3845    2.8916 O.2     1  UNL1       -0.1528
     11 N           2.6437   -6.7556    1.1689 N.3     1  UNL1       -0.1635
     12 C           3.8013   -6.9214    2.0514 C.3     1  UNL1        0.0971
     13 C           3.8747   -8.3516    2.5204 C.2     1  UNL1        0.2290
     14 O           3.0421   -9.1536    2.1536 O.2     1  UNL1       -0.2743
     15 N           4.8656   -8.7396    3.3475 N.am    1  UNL1       -0.3116
     16 C           4.9370  -10.1300    3.8034 C.3     1  UNL1        0.0206
     17 H           4.5992  -10.7917    3.0058 H       1  UNL1        0.0495
     18 C           4.0409  -10.3112    5.0302 C.3     1  UNL1       -0.0466
     19 C           6.3819  -10.4722    4.1722 C.3     1  UNL1       -0.0308
     20 C           7.2564  -10.4120    2.9182 C.3     1  UNL1       -0.0260
     21 C           8.6796  -10.7491    3.2815 C.ar    1  UNL1       -0.0473
     22 C           9.5515   -9.7465    3.6631 C.ar    1  UNL1       -0.0586
     23 C          10.8569  -10.0557    3.9963 C.ar    1  UNL1       -0.0615
     24 C          11.2904  -11.3675    3.9485 C.ar    1  UNL1       -0.0617
     25 C          10.4182  -12.3701    3.5678 C.ar    1  UNL1       -0.0615
     26 C           9.1116  -12.0615    3.2386 C.ar    1  UNL1       -0.0586
     27 C           2.7590   -7.0699   -0.2573 C.3     1  UNL1        0.0460
     28 C           3.3279   -5.8817   -0.9891 C.ar    1  UNL1       -0.0317
     29 C           2.4810   -4.9748   -1.5984 C.ar    1  UNL1       -0.0573
     30 C           3.0029   -3.8849   -2.2696 C.ar    1  UNL1       -0.0615
     31 C           4.3716   -3.7016   -2.3313 C.ar    1  UNL1       -0.0617
     32 C           5.2185   -4.6080   -1.7213 C.ar    1  UNL1       -0.0615
     33 C           4.6965   -5.6956   -1.0464 C.ar    1  UNL1       -0.0573
     34 C          -0.4077   -8.4078    1.6066 C.ar    1  UNL1       -0.0319
     35 C          -1.0694   -9.5077    2.1172 C.ar    1  UNL1       -0.0181
     36 H          -1.9139  -13.2376    5.1952 H       1  UNL1        0.0262
     37 H          -2.1767  -12.5694    6.8239 H       1  UNL1        0.0262
     38 H          -3.3385  -12.2215    5.5210 H       1  UNL1        0.0262
     39 H          -1.8567  -10.2768    5.9349 H       1  UNL1        0.0694
     40 H          -0.4321  -11.2930    5.6090 H       1  UNL1        0.0694
     41 H          -0.1269   -9.2408    5.3531 H       1  UNL1        0.0655
     42 H           1.0567   -7.2885    4.4332 H       1  UNL1        0.0638
     43 H           4.7118   -6.6701    1.5075 H       1  UNL1        0.0539
     44 H           3.6988   -6.2614    2.9128 H       1  UNL1        0.0539
     45 H           5.5315   -8.0982    3.6409 H       1  UNL1        0.1490
     46 H           3.0115  -10.0674    4.7674 H       1  UNL1        0.0247
     47 H           4.0941  -11.3457    5.3694 H       1  UNL1        0.0247
     48 H           4.3788   -9.6495    5.8278 H       1  UNL1        0.0247
     49 H           6.7492   -9.7548    4.9061 H       1  UNL1        0.0286
     50 H           6.4211  -11.4763    4.5946 H       1  UNL1        0.0286
     51 H           6.8891  -11.1294    2.1843 H       1  UNL1        0.0314
     52 H           7.2173   -9.4079    2.4958 H       1  UNL1        0.0314
     53 H           9.2128   -8.7217    3.7005 H       1  UNL1        0.0620
     54 H          11.5383   -9.2724    4.2938 H       1  UNL1        0.0618
     55 H          12.3105  -11.6089    4.2081 H       1  UNL1        0.0618
     56 H          10.7569  -13.3949    3.5300 H       1  UNL1        0.0618
     57 H           8.4302  -12.8448    2.9412 H       1  UNL1        0.0620
     58 H           3.4191   -7.9274   -0.3882 H       1  UNL1        0.0493
     59 H           1.7733   -7.3057   -0.6583 H       1  UNL1        0.0493
     60 H           1.4116   -5.1180   -1.5502 H       1  UNL1        0.0621
     61 H           2.3412   -3.1768   -2.7462 H       1  UNL1        0.0618
     62 H           4.7794   -2.8505   -2.8564 H       1  UNL1        0.0618
     63 H           6.2879   -4.4650   -1.7698 H       1  UNL1        0.0618
     64 H           5.3582   -6.4038   -0.5698 H       1  UNL1        0.0621
     65 H          -0.4849   -8.1717    0.5556 H       1  UNL1        0.0638
     66 H          -1.6667  -10.1292    1.4666 H       1  UNL1        0.0655
@<TRIPOS>BOND
     1     1     2    1
     2     1    36    1
     3     1    37    1
     4     1    38    1
     5     2     3    1
     6     2    39    1
     7     2    40    1
     8     3     4    1
     9     4    35   ar
    10     4     5   ar
    11     5     6   ar
    12     5    41    1
    13     6     7   ar
    14     6    42    1
    15     7     8    1
    16     7    34   ar
    17     8     9    2
    18     8    10    2
    19     8    11    1
    20    11    12    1
    21    11    27    1
    22    12    13    1
    23    12    43    1
    24    12    44    1
    25    13    14    2
    26    13    15   am
    27    15    16    1
    28    15    45    1
    29    16    17    1
    30    16    18    1
    31    16    19    1
    32    18    46    1
    33    18    47    1
    34    18    48    1
    35    19    20    1
    36    19    49    1
    37    19    50    1
    38    20    21    1
    39    20    51    1
    40    20    52    1
    41    21    26   ar
    42    21    22   ar
    43    22    23   ar
    44    22    53    1
    45    23    24   ar
    46    23    54    1
    47    24    25   ar
    48    24    55    1
    49    25    26   ar
    50    25    56    1
    51    26    57    1
    52    27    28    1
    53    27    58    1
    54    27    59    1
    55    28    33   ar
    56    28    29   ar
    57    29    30   ar
    58    29    60    1
    59    30    31   ar
    60    30    61    1
    61    31    32   ar
    62    31    62    1
    63    32    33   ar
    64    32    63    1
    65    33    64    1
    66    34    35   ar
    67    34    65    1
    68    35    66    1
