@<TRIPOS>MOLECULE
ZINC000002875367
 51 53 0 0 0
SMALL
GASTEIGER

@<TRIPOS>ATOM
      1 C          -0.0173    1.4248    0.0099 C.3     1  UNL1        0.0789
      2 O           0.0021   -0.0041    0.0020 O.3     1  UNL1       -0.4936
      3 C           0.6059   -0.6072   -1.0559 C.ar    1  UNL1        0.1384
      4 C           1.1729    0.1601   -2.0622 C.ar    1  UNL1       -0.0166
      5 C           1.7867   -0.4553   -3.1365 C.ar    1  UNL1       -0.0318
      6 C           1.8356   -1.8349   -3.2094 C.ar    1  UNL1        0.1071
      7 S           2.6191   -2.6158   -4.5809 S.O2    1  UNL1        0.0613
      8 O           2.0552   -3.9165   -4.6780 O.2     1  UNL1       -0.1528
      9 O           2.5932   -1.6759   -5.6464 O.2     1  UNL1       -0.1528
     10 N           4.2124   -2.8255   -4.1811 N.3     1  UNL1       -0.1675
     11 C           4.6441   -4.0556   -3.5126 C.3     1  UNL1        0.0250
     12 C           5.1532   -5.0516   -4.5565 C.3     1  UNL1       -0.0132
     13 C           5.5972   -6.3169   -3.8689 C.ar    1  UNL1       -0.0461
     14 C           6.9040   -6.4469   -3.4374 C.ar    1  UNL1       -0.0585
     15 C           7.3114   -7.6076   -2.8066 C.ar    1  UNL1       -0.0615
     16 C           6.4118   -8.6380   -2.6071 C.ar    1  UNL1       -0.0617
     17 C           5.1048   -8.5077   -3.0378 C.ar    1  UNL1       -0.0615
     18 C           4.6963   -7.3453   -3.6647 C.ar    1  UNL1       -0.0585
     19 C           5.1902   -1.7809   -4.4958 C.3     1  UNL1        0.0968
     20 C           5.3785   -0.8907   -3.2945 C.2     1  UNL1        0.2290
     21 O           4.7570   -1.1074   -2.2758 O.2     1  UNL1       -0.2743
     22 N           6.2374    0.1463   -3.3523 N.am    1  UNL1       -0.3114
     23 C           6.4204    1.0118   -2.1845 C.3     1  UNL1        0.0233
     24 C           7.8512    1.4119   -1.8190 C.3     1  UNL1       -0.0328
     25 C           6.9021    2.4424   -2.4339 C.3     1  UNL1       -0.0328
     26 C           1.2712   -2.6032   -2.2077 C.ar    1  UNL1       -0.0134
     27 C           0.6611   -1.9928   -1.1281 C.ar    1  UNL1        0.0844
     28 CL         -0.0474   -2.9574    0.1295 Cl      1  UNL1       -0.0797
     29 H           1.0053    1.8021    0.0021 H       1  UNL1        0.0660
     30 H          -0.5445    1.7859   -0.8732 H       1  UNL1        0.0660
     31 H          -0.5275    1.7763    0.9067 H       1  UNL1        0.0660
     32 H           1.1345    1.2380   -2.0065 H       1  UNL1        0.0655
     33 H           2.2283    0.1422   -3.9203 H       1  UNL1        0.0638
     34 H           5.4445   -3.8253   -2.8095 H       1  UNL1        0.0447
     35 H           3.8022   -4.4915   -2.9748 H       1  UNL1        0.0447
     36 H           4.3528   -5.2818   -5.2597 H       1  UNL1        0.0326
     37 H           5.9951   -4.6157   -5.0944 H       1  UNL1        0.0326
     38 H           7.6069   -5.6419   -3.5933 H       1  UNL1        0.0620
     39 H           8.3325   -7.7095   -2.4701 H       1  UNL1        0.0618
     40 H           6.7302   -9.5451   -2.1149 H       1  UNL1        0.0618
     41 H           4.4020   -9.3129   -2.8822 H       1  UNL1        0.0618
     42 H           3.6752   -7.2434   -4.0013 H       1  UNL1        0.0620
     43 H           6.1422   -2.2419   -4.7592 H       1  UNL1        0.0539
     44 H           4.8296   -1.1868   -5.3354 H       1  UNL1        0.0539
     45 H           6.7344    0.3196   -4.1670 H       1  UNL1        0.1490
     46 H           5.7174    0.8528   -1.3668 H       1  UNL1        0.0498
     47 H           8.0898    1.5161   -0.7605 H       1  UNL1        0.0284
     48 H           8.6563    1.0312   -2.4474 H       1  UNL1        0.0284
     49 H           7.0829    2.7396   -3.4669 H       1  UNL1        0.0284
     50 H           6.5163    3.2245   -1.7801 H       1  UNL1        0.0284
     51 H           1.3108   -3.6808   -2.2669 H       1  UNL1        0.0653
@<TRIPOS>BOND
     1     1     2    1
     2     1    29    1
     3     1    30    1
     4     1    31    1
     5     2     3    1
     6     3    27   ar
     7     3     4   ar
     8     4     5   ar
     9     4    32    1
    10     5     6   ar
    11     5    33    1
    12     6     7    1
    13     6    26   ar
    14     7     8    2
    15     7     9    2
    16     7    10    1
    17    10    11    1
    18    10    19    1
    19    11    12    1
    20    11    34    1
    21    11    35    1
    22    12    13    1
    23    12    36    1
    24    12    37    1
    25    13    18   ar
    26    13    14   ar
    27    14    15   ar
    28    14    38    1
    29    15    16   ar
    30    15    39    1
    31    16    17   ar
    32    16    40    1
    33    17    18   ar
    34    17    41    1
    35    18    42    1
    36    19    20    1
    37    19    43    1
    38    19    44    1
    39    20    21    2
    40    20    22   am
    41    22    23    1
    42    22    45    1
    43    23    25    1
    44    23    24    1
    45    23    46    1
    46    24    25    1
    47    24    47    1
    48    24    48    1
    49    25    49    1
    50    25    50    1
    51    26    27   ar
    52    26    51    1
    53    27    28    1
