@<TRIPOS>MOLECULE
ZINC000000676569
 53 54 0 0 0
SMALL
GASTEIGER

@<TRIPOS>ATOM
      1 C           4.3384   -2.6770   -3.4365 C.3     1  UNL1       -0.0613
      2 C           5.3397   -1.6618   -2.8818 C.3     1  UNL1       -0.0305
      3 C           5.7426   -2.0645   -1.4866 C.ar    1  UNL1       -0.0463
      4 C           5.0201   -1.6068   -0.4006 C.ar    1  UNL1       -0.0551
      5 C           5.3872   -1.9744    0.8799 C.ar    1  UNL1       -0.0186
      6 C           6.4817   -2.8033    1.0755 C.ar    1  UNL1        0.1351
      7 O           6.8443   -3.1666    2.3340 O.3     1  UNL1       -0.4817
      8 C           6.0531   -2.6575    3.4096 C.3     1  UNL1        0.1655
      9 C           6.6013   -3.1626    4.7193 C.2     1  UNL1        0.2548
     10 O           7.5739   -3.8872    4.7305 O.2     1  UNL1       -0.2717
     11 N           6.0109   -2.8091    5.8781 N.am    1  UNL1       -0.2827
     12 C           6.4590   -3.3543    7.0864 C.ar    1  UNL1        0.0336
     13 C           5.5539   -3.6329    8.1022 C.ar    1  UNL1       -0.0386
     14 C           5.9993   -4.1709    9.2936 C.ar    1  UNL1       -0.0336
     15 C           7.3450   -4.4318    9.4758 C.ar    1  UNL1        0.1056
     16 S           7.9093   -5.1178   10.9976 S.O2    1  UNL1        0.0608
     17 O           9.2809   -4.7645   11.1128 O.2     1  UNL1       -0.1528
     18 O           6.9351   -4.7805   11.9755 O.2     1  UNL1       -0.1528
     19 N           7.8625   -6.7656   10.8398 N.3     1  UNL1       -0.1771
     20 C           9.0325   -7.4863   10.3321 C.3     1  UNL1        0.0177
     21 C           9.8722   -7.9885   11.5084 C.3     1  UNL1       -0.0507
     22 C           6.6511   -7.5025   11.2079 C.3     1  UNL1        0.0177
     23 C           5.7909   -7.7245    9.9622 C.3     1  UNL1       -0.0507
     24 C           8.2487   -4.1560    8.4662 C.ar    1  UNL1       -0.0336
     25 C           7.8089   -3.6233    7.2703 C.ar    1  UNL1       -0.0386
     26 C           7.2059   -3.2619   -0.0166 C.ar    1  UNL1        0.0597
     27 BR          8.6987   -4.3929    0.2450 Br      1  UNL1       -0.0465
     28 C           6.8311   -2.8958   -1.2954 C.ar    1  UNL1       -0.0411
     29 H           3.4561   -2.7038   -2.7970 H       1  UNL1        0.0233
     30 H           4.0469   -2.3857   -4.4456 H       1  UNL1        0.0233
     31 H           4.7988   -3.6647   -3.4621 H       1  UNL1        0.0233
     32 H           6.2220   -1.6350   -3.5213 H       1  UNL1        0.0311
     33 H           4.8793   -0.6742   -2.8562 H       1  UNL1        0.0311
     34 H           4.1681   -0.9610   -0.5530 H       1  UNL1        0.0621
     35 H           4.8224   -1.6161    1.7279 H       1  UNL1        0.0654
     36 H           6.0835   -1.5680    3.3990 H       1  UNL1        0.0795
     37 H           5.0227   -2.9934    3.2933 H       1  UNL1        0.0795
     38 H           5.2753   -2.1768    5.8745 H       1  UNL1        0.1549
     39 H           4.5028   -3.4286    7.9607 H       1  UNL1        0.0637
     40 H           5.2959   -4.3878   10.0839 H       1  UNL1        0.0638
     41 H           8.7043   -8.3347    9.7316 H       1  UNL1        0.0441
     42 H           9.6331   -6.8164    9.7168 H       1  UNL1        0.0441
     43 H          10.7427   -8.5248   11.1307 H       1  UNL1        0.0243
     44 H          10.2004   -7.1401   12.1089 H       1  UNL1        0.0243
     45 H           9.2715   -8.6584   12.1237 H       1  UNL1        0.0243
     46 H           6.9278   -8.4665   11.6348 H       1  UNL1        0.0441
     47 H           6.0858   -6.9288   11.9423 H       1  UNL1        0.0441
     48 H           4.8895   -8.2728   10.2361 H       1  UNL1        0.0243
     49 H           5.5141   -6.7605    9.5353 H       1  UNL1        0.0243
     50 H           6.3561   -8.2983    9.2279 H       1  UNL1        0.0243
     51 H           9.2991   -4.3609    8.6116 H       1  UNL1        0.0638
     52 H           8.5152   -3.4080    6.4821 H       1  UNL1        0.0637
     53 H           7.3937   -3.2524   -2.1455 H       1  UNL1        0.0632
@<TRIPOS>BOND
     1     1     2    1
     2     1    29    1
     3     1    30    1
     4     1    31    1
     5     2     3    1
     6     2    32    1
     7     2    33    1
     8     3    28   ar
     9     3     4   ar
    10     4     5   ar
    11     4    34    1
    12     5     6   ar
    13     5    35    1
    14     6     7    1
    15     6    26   ar
    16     7     8    1
    17     8     9    1
    18     8    36    1
    19     8    37    1
    20     9    10    2
    21     9    11   am
    22    11    12    1
    23    11    38    1
    24    12    25   ar
    25    12    13   ar
    26    13    14   ar
    27    13    39    1
    28    14    15   ar
    29    14    40    1
    30    15    16    1
    31    15    24   ar
    32    16    17    2
    33    16    18    2
    34    16    19    1
    35    19    20    1
    36    19    22    1
    37    20    21    1
    38    20    41    1
    39    20    42    1
    40    21    43    1
    41    21    44    1
    42    21    45    1
    43    22    23    1
    44    22    46    1
    45    22    47    1
    46    23    48    1
    47    23    49    1
    48    23    50    1
    49    24    25   ar
    50    24    51    1
    51    25    52    1
    52    26    27    1
    53    26    28   ar
    54    28    53    1
