@<TRIPOS>MOLECULE
ZINC000072366081
 34 35 0 0 0
SMALL
GASTEIGER

@<TRIPOS>ATOM
      1 C          -1.5280    1.0411    1.0721 C.3     1  UNL1        0.0124
      2 C          -0.9558   -0.2956    0.6762 C.2     1  UNL1        0.2130
      3 O          -0.2667   -0.9158    1.4581 O.2     1  UNL1       -0.2759
      4 N          -1.2098   -0.8019   -0.5467 N.am    1  UNL1       -0.2922
      5 C          -1.9476   -0.0188   -1.5496 C.3     1  UNL1        0.0278
      6 C          -1.1434   -0.0175   -2.8540 C.3     1  UNL1        0.0118
      7 N          -0.8457   -1.4023   -3.2434 N.3     1  UNL1       -0.3124
      8 C           0.0005   -2.0669   -2.2433 C.3     1  UNL1        0.0187
      9 C          -0.7515   -2.1498   -0.9159 C.3     1  UNL1        0.0636
     10 H          -1.6145   -2.8066   -1.0244 H       1  UNL1        0.0563
     11 C           0.1645   -2.6898    0.1520 C.ar    1  UNL1       -0.0258
     12 C           1.3624   -2.0546    0.4212 C.ar    1  UNL1       -0.0562
     13 C           2.2026   -2.5499    1.4007 C.ar    1  UNL1       -0.0498
     14 C           1.8448   -3.6803    2.1114 C.ar    1  UNL1        0.0548
     15 C           2.7610   -4.2206    3.1789 C.3     1  UNL1        0.4174
     16 F           2.4431   -3.6325    4.4078 F       1  UNL1       -0.1659
     17 F           2.6029   -5.6076    3.2710 F       1  UNL1       -0.1659
     18 F           4.0877   -3.9234    2.8491 F       1  UNL1       -0.1659
     19 C           0.6463   -4.3148    1.8432 C.ar    1  UNL1       -0.0498
     20 C          -0.1957   -3.8172    0.8663 C.ar    1  UNL1       -0.0562
     21 H          -0.7162    1.7501    1.2348 H       1  UNL1        0.0323
     22 H          -2.1771    1.4083    0.2771 H       1  UNL1        0.0323
     23 H          -2.1046    0.9319    1.9906 H       1  UNL1        0.0323
     24 H          -2.9240   -0.4716   -1.7219 H       1  UNL1        0.0477
     25 H          -2.0727    1.0045   -1.1956 H       1  UNL1        0.0477
     26 H          -1.7255    0.4641   -3.6397 H       1  UNL1        0.0439
     27 H          -0.2109    0.5271   -2.7059 H       1  UNL1        0.0439
     28 H          -1.6947   -1.9237   -3.4025 H       1  UNL1        0.1221
     29 H           0.2480   -3.0716   -2.5860 H       1  UNL1        0.0446
     30 H           0.9171   -1.4937   -2.1036 H       1  UNL1        0.0446
     31 H           1.6420   -1.1715   -0.1341 H       1  UNL1        0.0621
     32 H           3.1388   -2.0540    1.6105 H       1  UNL1        0.0623
     33 H           0.3665   -5.1977    2.3987 H       1  UNL1        0.0623
     34 H          -1.1321   -4.3129    0.6567 H       1  UNL1        0.0621
@<TRIPOS>BOND
     1     1     2    1
     2     1    21    1
     3     1    22    1
     4     1    23    1
     5     2     3    2
     6     2     4   am
     7     4     9    1
     8     4     5    1
     9     5     6    1
    10     5    24    1
    11     5    25    1
    12     6     7    1
    13     6    26    1
    14     6    27    1
    15     7     8    1
    16     7    28    1
    17     8     9    1
    18     8    29    1
    19     8    30    1
    20     9    10    1
    21     9    11    1
    22    11    20   ar
    23    11    12   ar
    24    12    13   ar
    25    12    31    1
    26    13    14   ar
    27    13    32    1
    28    14    15    1
    29    14    19   ar
    30    15    16    1
    31    15    17    1
    32    15    18    1
    33    19    20   ar
    34    19    33    1
    35    20    34    1
