@<TRIPOS>MOLECULE
ZINC000016479104
 53 55 0 0 0
SMALL
GASTEIGER

@<TRIPOS>ATOM
      1 O           0.0021   -0.0041    0.0020 O.2     1  UNL1       -0.2743
      2 C          -0.0144    1.2086    0.0087 C.2     1  UNL1        0.2290
      3 C           1.2803    1.9798    0.0005 C.3     1  UNL1        0.0968
      4 N           2.4066    1.0431   -0.0153 N.3     1  UNL1       -0.1675
      5 C           2.8870    0.4965   -1.2868 C.3     1  UNL1        0.0250
      6 C           3.8806    1.4732   -1.9190 C.3     1  UNL1       -0.0132
      7 C           4.3747    0.9110   -3.2269 C.ar    1  UNL1       -0.0461
      8 C           5.4974    0.1048   -3.2526 C.ar    1  UNL1       -0.0585
      9 C           5.9506   -0.4110   -4.4523 C.ar    1  UNL1       -0.0615
     10 C           5.2810   -0.1209   -5.6264 C.ar    1  UNL1       -0.0617
     11 C           4.1578    0.6845   -5.6006 C.ar    1  UNL1       -0.0615
     12 C           3.7020    1.1967   -4.4002 C.ar    1  UNL1       -0.0585
     13 S           3.1367    0.6021    1.4041 S.O2    1  UNL1        0.0613
     14 O           4.4947    0.3274    1.0884 O.2     1  UNL1       -0.1528
     15 O           2.7433    1.5638    2.3734 O.2     1  UNL1       -0.1528
     16 C           2.4227   -0.9292    1.9041 C.ar    1  UNL1        0.1055
     17 C           1.3004   -0.9377    2.7111 C.ar    1  UNL1       -0.0353
     18 C           0.7402   -2.1390    3.1034 C.ar    1  UNL1       -0.0599
     19 C           1.3020   -3.3318    2.6884 C.ar    1  UNL1       -0.0616
     20 C           2.4238   -3.3234    1.8806 C.ar    1  UNL1       -0.0599
     21 C           2.9815   -2.1220    1.4848 C.ar    1  UNL1       -0.0353
     22 N          -1.1906    1.8666    0.0178 N.am    1  UNL1       -0.3114
     23 C          -2.4492    1.1169    0.0197 C.3     1  UNL1        0.0232
     24 C          -2.8684    0.7915    1.4683 C.3     1  UNL1       -0.0345
     25 C          -3.8564    1.9245    1.8414 C.3     1  UNL1       -0.0513
     26 C          -4.6396    2.1429    0.5231 C.3     1  UNL1       -0.0513
     27 C          -3.5754    1.9761   -0.5812 C.3     1  UNL1       -0.0345
     28 H           1.3211    2.6120   -0.8866 H       1  UNL1        0.0539
     29 H           1.3381    2.6024    0.8933 H       1  UNL1        0.0539
     30 H           3.3803   -0.4590   -1.1083 H       1  UNL1        0.0447
     31 H           2.0432    0.3494   -1.9610 H       1  UNL1        0.0447
     32 H           3.3872    2.4287   -2.0974 H       1  UNL1        0.0326
     33 H           4.7243    1.6203   -1.2448 H       1  UNL1        0.0326
     34 H           6.0205   -0.1218   -2.3353 H       1  UNL1        0.0620
     35 H           6.8281   -1.0402   -4.4725 H       1  UNL1        0.0618
     36 H           5.6355   -0.5233   -6.5638 H       1  UNL1        0.0618
     37 H           3.6348    0.9113   -6.5179 H       1  UNL1        0.0618
     38 H           2.8245    1.8260   -4.3801 H       1  UNL1        0.0620
     39 H           0.8614   -0.0057    3.0354 H       1  UNL1        0.0637
     40 H          -0.1362   -2.1456    3.7345 H       1  UNL1        0.0618
     41 H           0.8648   -4.2704    2.9954 H       1  UNL1        0.0618
     42 H           2.8630   -4.2554    1.5566 H       1  UNL1        0.0618
     43 H           3.8579   -2.1154    0.8537 H       1  UNL1        0.0637
     44 H          -1.2037    2.8365    0.0232 H       1  UNL1        0.1490
     45 H          -2.3360    0.1962   -0.5527 H       1  UNL1        0.0498
     46 H          -3.3649   -0.1778    1.5132 H       1  UNL1        0.0283
     47 H          -2.0016    0.8082    2.1291 H       1  UNL1        0.0283
     48 H          -4.5260    1.6056    2.6402 H       1  UNL1        0.0266
     49 H          -3.3179    2.8287    2.1252 H       1  UNL1        0.0266
     50 H          -5.4221    1.3919    0.4154 H       1  UNL1        0.0266
     51 H          -5.0655    3.1459    0.4941 H       1  UNL1        0.0266
     52 H          -3.1855    2.9509   -0.8743 H       1  UNL1        0.0283
     53 H          -4.0093    1.4721   -1.4448 H       1  UNL1        0.0283
@<TRIPOS>BOND
     1     1     2    2
     2     2     3    1
     3     2    22   am
     4     3     4    1
     5     3    28    1
     6     3    29    1
     7     4     5    1
     8    13     4    1
     9     5     6    1
    10     5    30    1
    11     5    31    1
    12     6     7    1
    13     6    32    1
    14     6    33    1
    15     7    12   ar
    16     7     8   ar
    17     8     9   ar
    18     8    34    1
    19     9    10   ar
    20     9    35    1
    21    10    11   ar
    22    10    36    1
    23    11    12   ar
    24    11    37    1
    25    12    38    1
    26    13    14    2
    27    13    15    2
    28    13    16    1
    29    16    21   ar
    30    16    17   ar
    31    17    18   ar
    32    17    39    1
    33    18    19   ar
    34    18    40    1
    35    19    20   ar
    36    19    41    1
    37    20    21   ar
    38    20    42    1
    39    21    43    1
    40    22    23    1
    41    22    44    1
    42    23    27    1
    43    23    24    1
    44    23    45    1
    45    24    25    1
    46    24    46    1
    47    24    47    1
    48    25    26    1
    49    25    48    1
    50    25    49    1
    51    26    27    1
    52    26    50    1
    53    26    51    1
    54    27    52    1
    55    27    53    1
