@<TRIPOS>MOLECULE
ZINC000004218212
 37 37 0 0 0
SMALL
GASTEIGER

@<TRIPOS>ATOM
      1 C          -0.0187    1.5258    0.0104 C.3     1  UNL1       -0.0507
      2 C           0.0021   -0.0041    0.0020 C.3     1  UNL1        0.0177
      3 N           0.6878   -0.4765   -1.2033 N.3     1  UNL1       -0.1771
      4 C           2.1478   -0.5966   -1.2159 C.3     1  UNL1        0.0177
      5 C           2.5532   -1.9514   -0.6319 C.3     1  UNL1       -0.0507
      6 S          -0.1875   -0.8749   -2.5515 S.O2    1  UNL1        0.0608
      7 O           0.6166   -1.7761   -3.3001 O.2     1  UNL1       -0.1528
      8 O          -1.4970   -1.1925   -2.1004 O.2     1  UNL1       -0.1528
      9 C          -0.3375    0.5853   -3.5262 C.ar    1  UNL1        0.1055
     10 C          -1.4057    1.4405   -3.3300 C.ar    1  UNL1       -0.0351
     11 C          -1.5234    2.5861   -4.0947 C.ar    1  UNL1       -0.0567
     12 C          -0.5727    2.8767   -5.0552 C.ar    1  UNL1       -0.0467
     13 C          -0.7013    4.1253   -5.8892 C.3     1  UNL1       -0.0175
     14 C           0.0204    5.2805   -5.1924 C.3     1  UNL1        0.0531
     15 C          -0.1082    6.5291   -6.0263 C.2     1  UNL1        0.3563
     16 O          -0.7204    6.4979   -7.0803 O.co2   1  UNL1       -0.2464
     17 O           0.3998    7.5705   -5.6471 O.co2   1  UNL1       -0.2464
     18 C           0.4962    2.0221   -5.2504 C.ar    1  UNL1       -0.0567
     19 C           0.6160    0.8786   -4.4831 C.ar    1  UNL1       -0.0351
     20 H           1.0039    1.9031    0.0027 H       1  UNL1        0.0243
     21 H          -0.5459    1.8868   -0.8726 H       1  UNL1        0.0243
     22 H          -0.5289    1.8773    0.9072 H       1  UNL1        0.0243
     23 H           0.5293   -0.3651    0.8851 H       1  UNL1        0.0441
     24 H          -1.0205   -0.3814    0.0098 H       1  UNL1        0.0441
     25 H           2.5098   -0.5199   -2.2412 H       1  UNL1        0.0441
     26 H           2.5833    0.2026   -0.6162 H       1  UNL1        0.0441
     27 H           3.6395   -2.0407   -0.6413 H       1  UNL1        0.0243
     28 H           2.1912   -2.0280    0.3934 H       1  UNL1        0.0243
     29 H           2.1177   -2.7506   -1.2316 H       1  UNL1        0.0243
     30 H          -2.1485    1.2135   -2.5796 H       1  UNL1        0.0637
     31 H          -2.3583    3.2539   -3.9419 H       1  UNL1        0.0621
     32 H          -0.2543    3.9556   -6.8687 H       1  UNL1        0.0318
     33 H          -1.7555    4.3750   -6.0092 H       1  UNL1        0.0318
     34 H          -0.4267    5.4502   -4.2129 H       1  UNL1        0.0382
     35 H           1.0745    5.0308   -5.0723 H       1  UNL1        0.0382
     36 H           1.2392    2.2494   -6.0006 H       1  UNL1        0.0621
     37 H           1.4511    0.2109   -4.6357 H       1  UNL1        0.0637
@<TRIPOS>BOND
     1     1     2    1
     2     1    20    1
     3     1    21    1
     4     1    22    1
     5     2     3    1
     6     2    23    1
     7     2    24    1
     8     3     4    1
     9     6     3    1
    10     4     5    1
    11     4    25    1
    12     4    26    1
    13     5    27    1
    14     5    28    1
    15     5    29    1
    16     6     7    2
    17     6     8    2
    18     6     9    1
    19     9    19   ar
    20     9    10   ar
    21    10    11   ar
    22    10    30    1
    23    11    12   ar
    24    11    31    1
    25    12    13    1
    26    12    18   ar
    27    13    14    1
    28    13    32    1
    29    13    33    1
    30    14    15    1
    31    14    34    1
    32    14    35    1
    33    15    16   ar
    34    15    17   ar
    35    18    19   ar
    36    18    36    1
    37    19    37    1
