@<TRIPOS>MOLECULE
ZINC000012793042
 51 53 0 0 0
SMALL
GASTEIGER

@<TRIPOS>ATOM
      1 C           0.2223    1.4393    0.1491 C.3     1  UNL1       -0.0191
      2 C           0.0503   -0.0662   -0.0624 C.3     1  UNL1        0.1728
      3 H          -1.0103   -0.3169   -0.0438 H       1  UNL1        0.0828
      4 O           0.7253   -0.7737    0.9796 O.3     1  UNL1       -0.4799
      5 C          -0.0093   -1.1126    2.0715 C.ar    1  UNL1        0.1216
      6 C           0.5535   -1.8894    3.0738 C.ar    1  UNL1       -0.0199
      7 C          -0.1953   -2.2321    4.1830 C.ar    1  UNL1       -0.0583
      8 C          -1.5046   -1.8021    4.2946 C.ar    1  UNL1       -0.0615
      9 C          -2.0679   -1.0282    3.2968 C.ar    1  UNL1       -0.0583
     10 C          -1.3215   -0.6776    2.1885 C.ar    1  UNL1       -0.0199
     11 C           0.6354   -0.4563   -1.3953 C.2     1  UNL1        0.2561
     12 O           1.6604   -1.1028   -1.4417 O.2     1  UNL1       -0.2715
     13 N           0.0195   -0.0867   -2.5357 N.am    1  UNL1       -0.2959
     14 C          -1.1552    0.7957   -2.4993 C.3     1  UNL1        0.0292
     15 C          -0.8809    2.0137   -3.3902 C.3     1  UNL1        0.0363
     16 N          -0.3896    1.5419   -4.6924 N.3     1  UNL1       -0.1736
     17 S          -1.1456    1.9969   -6.0937 S.O2    1  UNL1        0.0609
     18 O          -0.8318    1.0032   -7.0598 O.2     1  UNL1       -0.1528
     19 O          -2.4774    2.3414   -5.7375 O.2     1  UNL1       -0.1528
     20 C          -0.3766    3.4844   -6.6420 C.ar    1  UNL1        0.1055
     21 C          -0.8596    4.7087   -6.2192 C.ar    1  UNL1       -0.0348
     22 C          -0.2563    5.8756   -6.6494 C.ar    1  UNL1       -0.0483
     23 C           0.8303    5.8183   -7.5020 C.ar    1  UNL1        0.0549
     24 C           1.4878    7.0906   -7.9713 C.3     1  UNL1        0.4174
     25 F           2.5039    7.4473   -7.0783 F       1  UNL1       -0.1659
     26 F           2.0340    6.8913   -9.2438 F       1  UNL1       -0.1659
     27 F           0.5358    8.1142   -8.0276 F       1  UNL1       -0.1659
     28 C           1.3142    4.5940   -7.9237 C.ar    1  UNL1       -0.0483
     29 C           0.7132    3.4269   -7.4905 C.ar    1  UNL1       -0.0348
     30 C           0.7851    0.6595   -4.7288 C.3     1  UNL1        0.0363
     31 C           0.5143   -0.5540   -3.8383 C.3     1  UNL1        0.0292
     32 H           1.2827    1.6747    0.2401 H       1  UNL1        0.0270
     33 H          -0.1973    1.9760   -0.7018 H       1  UNL1        0.0270
     34 H          -0.2960    1.7399    1.0597 H       1  UNL1        0.0270
     35 H           1.5759   -2.2261    2.9868 H       1  UNL1        0.0654
     36 H           0.2424   -2.8368    4.9636 H       1  UNL1        0.0619
     37 H          -2.0884   -2.0714    5.1624 H       1  UNL1        0.0618
     38 H          -3.0910   -0.6939    3.3861 H       1  UNL1        0.0619
     39 H          -1.7619   -0.0731    1.4094 H       1  UNL1        0.0654
     40 H          -2.0276    0.2590   -2.8719 H       1  UNL1        0.0478
     41 H          -1.3344    1.1243   -1.4756 H       1  UNL1        0.0478
     42 H          -1.8020    2.5795   -3.5299 H       1  UNL1        0.0459
     43 H          -0.1271    2.6469   -2.9223 H       1  UNL1        0.0459
     44 H          -1.7085    4.7534   -5.5531 H       1  UNL1        0.0637
     45 H          -0.6341    6.8322   -6.3197 H       1  UNL1        0.0624
     46 H           2.1634    4.5492   -8.5895 H       1  UNL1        0.0624
     47 H           1.0913    2.4704   -7.8199 H       1  UNL1        0.0637
     48 H           0.9643    0.3310   -5.7525 H       1  UNL1        0.0459
     49 H           1.6576    1.1962   -4.3562 H       1  UNL1        0.0459
     50 H           1.4361   -1.1189   -3.6994 H       1  UNL1        0.0478
     51 H          -0.2399   -1.1884   -4.3039 H       1  UNL1        0.0478
@<TRIPOS>BOND
     1     1     2    1
     2     1    32    1
     3     1    33    1
     4     1    34    1
     5     2     3    1
     6     2     4    1
     7     2    11    1
     8     4     5    1
     9     5    10   ar
    10     5     6   ar
    11     6     7   ar
    12     6    35    1
    13     7     8   ar
    14     7    36    1
    15     8     9   ar
    16     8    37    1
    17     9    10   ar
    18     9    38    1
    19    10    39    1
    20    11    12    2
    21    11    13   am
    22    13    31    1
    23    13    14    1
    24    14    15    1
    25    14    40    1
    26    14    41    1
    27    15    16    1
    28    15    42    1
    29    15    43    1
    30    17    16    1
    31    16    30    1
    32    17    18    2
    33    17    19    2
    34    17    20    1
    35    20    29   ar
    36    20    21   ar
    37    21    22   ar
    38    21    44    1
    39    22    23   ar
    40    22    45    1
    41    23    24    1
    42    23    28   ar
    43    24    25    1
    44    24    26    1
    45    24    27    1
    46    28    29   ar
    47    28    46    1
    48    29    47    1
    49    30    31    1
    50    30    48    1
    51    30    49    1
    52    31    50    1
    53    31    51    1
