@<TRIPOS>MOLECULE
ZINC000408618309
 58 59 0 0 0
SMALL
GASTEIGER

@<TRIPOS>ATOM
      1 C          -0.0173    1.4248    0.0099 C.3     1  UNL1        0.0365
      2 O           0.0021   -0.0041    0.0020 O.3     1  UNL1       -0.3812
      3 C          -1.2953   -0.6030    0.0112 C.3     1  UNL1        0.0654
      4 C          -1.1538   -2.1264    0.0017 C.3     1  UNL1        0.0437
      5 H          -2.1387   -2.5834    0.0982 H       1  UNL1        0.0518
      6 C          -0.2716   -2.5640    1.1726 C.3     1  UNL1       -0.0445
      7 N          -0.5394   -2.5519   -1.2584 N.am    1  UNL1       -0.3094
      8 C          -0.7570   -3.7964   -1.7277 C.2     1  UNL1        0.2291
      9 O          -1.4615   -4.5641   -1.1069 O.2     1  UNL1       -0.2743
     10 C          -0.1250   -4.2341   -3.0239 C.3     1  UNL1        0.0971
     11 N          -0.5122   -5.6171   -3.3134 N.3     1  UNL1       -0.1635
     12 C          -1.7767   -5.8956   -3.9986 C.3     1  UNL1        0.0460
     13 C          -1.5740   -5.7929   -5.4884 C.ar    1  UNL1       -0.0317
     14 C          -1.7547   -4.5811   -6.1286 C.ar    1  UNL1       -0.0573
     15 C          -1.5687   -4.4869   -7.4952 C.ar    1  UNL1       -0.0615
     16 C          -1.2017   -5.6044   -8.2214 C.ar    1  UNL1       -0.0617
     17 C          -1.0202   -6.8159   -7.5811 C.ar    1  UNL1       -0.0615
     18 C          -1.2020   -6.9092   -6.2139 C.ar    1  UNL1       -0.0573
     19 S           0.4796   -6.8655   -2.8661 S.O2    1  UNL1        0.0617
     20 O           0.1604   -7.9567   -3.7185 O.2     1  UNL1       -0.1528
     21 O           1.7874   -6.3202   -2.7583 O.2     1  UNL1       -0.1528
     22 C           0.0070   -7.3500   -1.2393 C.ar    1  UNL1        0.1092
     23 C           0.5976   -6.7513   -0.1426 C.ar    1  UNL1       -0.0317
     24 C           0.2304   -7.1284    1.1362 C.ar    1  UNL1       -0.0145
     25 C          -0.7317   -8.1079    1.3201 C.ar    1  UNL1        0.1616
     26 O          -1.0943   -8.4796    2.5770 O.3     1  UNL1       -0.4915
     27 C          -0.4419   -7.8180    3.6627 C.3     1  UNL1        0.0790
     28 C          -1.3269   -8.7105    0.2155 C.ar    1  UNL1        0.1633
     29 O          -2.2723   -9.6723    0.3908 O.3     1  UNL1       -0.4914
     30 C          -2.8399  -10.2466   -0.7881 C.3     1  UNL1        0.0790
     31 C          -0.9582   -8.3245   -1.0628 C.ar    1  UNL1        0.0101
     32 H           1.0053    1.8021    0.0021 H       1  UNL1        0.0523
     33 H          -0.5445    1.7859   -0.8732 H       1  UNL1        0.0523
     34 H          -0.5275    1.7763    0.9067 H       1  UNL1        0.0523
     35 H          -1.8320   -0.2936    0.9080 H       1  UNL1        0.0578
     36 H          -1.8490   -0.2840   -0.8718 H       1  UNL1        0.0578
     37 H          -0.1708   -3.6493    1.1658 H       1  UNL1        0.0248
     38 H           0.7133   -2.1070    1.0761 H       1  UNL1        0.0248
     39 H          -0.7287   -2.2474    2.1101 H       1  UNL1        0.0248
     40 H           0.0240   -1.9380   -1.7549 H       1  UNL1        0.1491
     41 H          -0.4647   -3.5852   -3.8311 H       1  UNL1        0.0539
     42 H           0.9598   -4.1708   -2.9387 H       1  UNL1        0.0539
     43 H          -2.1130   -6.9012   -3.7462 H       1  UNL1        0.0493
     44 H          -2.5280   -5.1714   -3.6834 H       1  UNL1        0.0493
     45 H          -2.0414   -3.7081   -5.5612 H       1  UNL1        0.0621
     46 H          -1.7106   -3.5403   -7.9955 H       1  UNL1        0.0618
     47 H          -1.0571   -5.5309   -9.2892 H       1  UNL1        0.0618
     48 H          -0.7338   -7.6891   -8.1486 H       1  UNL1        0.0618
     49 H          -1.0601   -7.8558   -5.7136 H       1  UNL1        0.0621
     50 H           1.3479   -5.9876   -0.2846 H       1  UNL1        0.0638
     51 H           0.6940   -6.6595    1.9915 H       1  UNL1        0.0656
     52 H          -0.8226   -8.2075    4.6069 H       1  UNL1        0.0660
     53 H           0.6320   -7.9948    3.6033 H       1  UNL1        0.0660
     54 H          -0.6375   -6.7472    3.6060 H       1  UNL1        0.0660
     55 H          -3.5781  -10.9979   -0.5071 H       1  UNL1        0.0660
     56 H          -3.3219   -9.4661   -1.3768 H       1  UNL1        0.0660
     57 H          -2.0528  -10.7141   -1.3797 H       1  UNL1        0.0660
     58 H          -1.4185   -8.7905   -1.9215 H       1  UNL1        0.0675
@<TRIPOS>BOND
     1     1     2    1
     2     1    32    1
     3     1    33    1
     4     1    34    1
     5     2     3    1
     6     3     4    1
     7     3    35    1
     8     3    36    1
     9     4     5    1
    10     4     6    1
    11     4     7    1
    12     6    37    1
    13     6    38    1
    14     6    39    1
    15     7     8   am
    16     7    40    1
    17     8     9    2
    18     8    10    1
    19    10    11    1
    20    10    41    1
    21    10    42    1
    22    11    12    1
    23    19    11    1
    24    12    13    1
    25    12    43    1
    26    12    44    1
    27    13    18   ar
    28    13    14   ar
    29    14    15   ar
    30    14    45    1
    31    15    16   ar
    32    15    46    1
    33    16    17   ar
    34    16    47    1
    35    17    18   ar
    36    17    48    1
    37    18    49    1
    38    19    20    2
    39    19    21    2
    40    19    22    1
    41    22    31   ar
    42    22    23   ar
    43    23    24   ar
    44    23    50    1
    45    24    25   ar
    46    24    51    1
    47    25    26    1
    48    25    28   ar
    49    26    27    1
    50    27    52    1
    51    27    53    1
    52    27    54    1
    53    28    29    1
    54    28    31   ar
    55    29    30    1
    56    30    55    1
    57    30    56    1
    58    30    57    1
    59    31    58    1
