@<TRIPOS>MOLECULE
ZINC000408607912
 52 52 0 0 0
SMALL
GASTEIGER

@<TRIPOS>ATOM
      1 C          -0.0187    1.5258    0.0104 C.3     1  UNL1       -0.0652
      2 C           0.0021   -0.0041    0.0020 C.3     1  UNL1       -0.0542
      3 C          -1.4333   -0.5336    0.0129 C.3     1  UNL1       -0.0350
      4 C          -1.4126   -2.0635    0.0045 C.3     1  UNL1        0.0204
      5 H          -0.8263   -2.4142   -0.8449 H       1  UNL1        0.0495
      6 C          -2.8437   -2.5923   -0.1104 C.3     1  UNL1       -0.0466
      7 N          -0.8103   -2.5505    1.2480 N.am    1  UNL1       -0.3099
      8 C          -0.2268   -3.7649    1.2837 C.2     1  UNL1        0.2509
      9 O          -0.2003   -4.4545    0.2863 O.2     1  UNL1       -0.2721
     10 C           0.3926   -4.2659    2.5628 C.3     1  UNL1        0.1651
     11 O           0.9422   -5.5674    2.3481 O.3     1  UNL1       -0.4828
     12 C           1.5428   -6.1664    3.4099 C.ar    1  UNL1        0.1213
     13 C           1.5969   -5.5174    4.6348 C.ar    1  UNL1       -0.0181
     14 C           2.2076   -6.1286    5.7127 C.ar    1  UNL1       -0.0319
     15 C           2.7649   -7.3860    5.5714 C.ar    1  UNL1        0.1057
     16 S           3.5436   -8.1626    6.9480 S.O2    1  UNL1        0.0608
     17 O           4.4589   -9.1075    6.4108 O.2     1  UNL1       -0.1528
     18 O           3.9324   -7.1189    7.8305 O.2     1  UNL1       -0.1528
     19 N           2.3810   -9.0361    7.7403 N.3     1  UNL1       -0.1771
     20 C           2.1340  -10.4319    7.3701 C.3     1  UNL1        0.0177
     21 C           2.9358  -11.3534    8.2914 C.3     1  UNL1       -0.0507
     22 C           1.5994   -8.4130    8.8114 C.3     1  UNL1        0.0177
     23 C           0.2866   -7.8753    8.2383 C.3     1  UNL1       -0.0507
     24 C           2.7119   -8.0352    4.3518 C.ar    1  UNL1       -0.0319
     25 C           2.0978   -7.4304    3.2722 C.ar    1  UNL1       -0.0181
     26 H           1.0039    1.9031    0.0027 H       1  UNL1        0.0230
     27 H          -0.5459    1.8868   -0.8726 H       1  UNL1        0.0230
     28 H          -0.5289    1.8773    0.9072 H       1  UNL1        0.0230
     29 H           0.5123   -0.3556   -0.8948 H       1  UNL1        0.0263
     30 H           0.5293   -0.3651    0.8851 H       1  UNL1        0.0263
     31 H          -1.9435   -0.1821    0.9097 H       1  UNL1        0.0283
     32 H          -1.9605   -0.1726   -0.8702 H       1  UNL1        0.0283
     33 H          -3.2917   -2.2299   -1.0357 H       1  UNL1        0.0247
     34 H          -2.8289   -3.6822   -0.1164 H       1  UNL1        0.0247
     35 H          -3.4299   -2.2416    0.7389 H       1  UNL1        0.0247
     36 H          -0.8315   -1.9990    2.0457 H       1  UNL1        0.1491
     37 H           1.1840   -3.5843    2.8746 H       1  UNL1        0.0795
     38 H          -0.3698   -4.3172    3.3401 H       1  UNL1        0.0795
     39 H           1.1623   -4.5349    4.7455 H       1  UNL1        0.0655
     40 H           2.2499   -5.6237    6.6665 H       1  UNL1        0.0638
     41 H           1.0712  -10.6520    7.4714 H       1  UNL1        0.0441
     42 H           2.4417  -10.5937    6.3370 H       1  UNL1        0.0441
     43 H           2.7520  -12.3919    8.0160 H       1  UNL1        0.0243
     44 H           3.9985  -11.1332    8.1901 H       1  UNL1        0.0243
     45 H           2.6281  -11.1916    9.3245 H       1  UNL1        0.0243
     46 H           1.3834   -9.1536    9.5815 H       1  UNL1        0.0441
     47 H           2.1692   -7.5920    9.2465 H       1  UNL1        0.0441
     48 H           0.5027   -7.1348    7.4682 H       1  UNL1        0.0243
     49 H          -0.2831   -8.6964    7.8032 H       1  UNL1        0.0243
     50 H          -0.2948   -7.4118    9.0352 H       1  UNL1        0.0243
     51 H           3.1477   -9.0175    4.2440 H       1  UNL1        0.0638
     52 H           2.0566   -7.9379    2.3197 H       1  UNL1        0.0655
@<TRIPOS>BOND
     1     1     2    1
     2     1    26    1
     3     1    27    1
     4     1    28    1
     5     2     3    1
     6     2    29    1
     7     2    30    1
     8     3     4    1
     9     3    31    1
    10     3    32    1
    11     4     5    1
    12     4     6    1
    13     4     7    1
    14     6    33    1
    15     6    34    1
    16     6    35    1
    17     7     8   am
    18     7    36    1
    19     8     9    2
    20     8    10    1
    21    10    11    1
    22    10    37    1
    23    10    38    1
    24    11    12    1
    25    12    25   ar
    26    12    13   ar
    27    13    14   ar
    28    13    39    1
    29    14    15   ar
    30    14    40    1
    31    15    16    1
    32    15    24   ar
    33    16    17    2
    34    16    18    2
    35    16    19    1
    36    19    20    1
    37    19    22    1
    38    20    21    1
    39    20    41    1
    40    20    42    1
    41    21    43    1
    42    21    44    1
    43    21    45    1
    44    22    23    1
    45    22    46    1
    46    22    47    1
    47    23    48    1
    48    23    49    1
    49    23    50    1
    50    24    25   ar
    51    24    51    1
    52    25    52    1
