@<TRIPOS>MOLECULE
ZINC000013496948
 60 62 0 0 0
SMALL
GASTEIGER

@<TRIPOS>ATOM
      1 C          -0.0413    1.4263    0.0165 C.3     1  UNL1        0.0365
      2 O          -0.0131   -0.0024    0.0059 O.3     1  UNL1       -0.3817
      3 C           0.6365   -0.5624   -1.1371 C.3     1  UNL1        0.0617
      4 C           0.6075   -2.0893   -1.0431 C.3     1  UNL1        0.0444
      5 N          -0.7788   -2.5569   -1.1174 N.3     1  UNL1       -0.1656
      6 C          -1.4127   -2.7653   -2.4217 C.3     1  UNL1        0.0972
      7 C          -1.0730   -4.1424   -2.9309 C.2     1  UNL1        0.2330
      8 O          -0.3706   -4.8774   -2.2695 O.2     1  UNL1       -0.2740
      9 N          -1.5497   -4.5573   -4.1213 N.am    1  UNL1       -0.2844
     10 C          -1.1568   -5.7964   -4.6389 C.ar    1  UNL1        0.0334
     11 C          -0.9841   -5.9556   -6.0077 C.ar    1  UNL1       -0.0405
     12 C          -0.5962   -7.1800   -6.5154 C.ar    1  UNL1       -0.0600
     13 C          -0.3802   -8.2469   -5.6626 C.ar    1  UNL1       -0.0616
     14 C          -0.5517   -8.0917   -4.2992 C.ar    1  UNL1       -0.0600
     15 C          -0.9331   -6.8681   -3.7846 C.ar    1  UNL1       -0.0405
     16 S          -1.6295   -2.8498    0.2729 S.O2    1  UNL1        0.0613
     17 O          -2.6565   -3.7696   -0.0714 O.2     1  UNL1       -0.1528
     18 O          -0.6665   -3.1036    1.2865 O.2     1  UNL1       -0.1528
     19 C          -2.4356   -1.3474    0.7174 C.ar    1  UNL1        0.1056
     20 C          -1.7965   -0.4365    1.5376 C.ar    1  UNL1       -0.0335
     21 C          -2.4289    0.7421    1.8864 C.ar    1  UNL1       -0.0335
     22 C          -3.7003    1.0102    1.4146 C.ar    1  UNL1        0.1056
     23 S          -4.5067    2.5123    1.8596 S.O2    1  UNL1        0.0610
     24 O          -5.9010    2.2748    1.7234 O.2     1  UNL1       -0.1528
     25 O          -3.9069    2.9455    3.0729 O.2     1  UNL1       -0.1528
     26 N          -4.1101    3.6397    0.7134 N.3     1  UNL1       -0.1722
     27 C          -2.9188    4.4897    0.8672 C.3     1  UNL1        0.0440
     28 C          -2.1013    4.4153   -0.4274 C.3     1  UNL1        0.0621
     29 O          -2.9516    4.7090   -1.5386 O.3     1  UNL1       -0.3771
     30 C          -4.0225    3.7790   -1.7179 C.3     1  UNL1        0.0621
     31 C          -4.9352    3.8170   -0.4921 C.3     1  UNL1        0.0440
     32 C          -4.3389    0.0999    0.5933 C.ar    1  UNL1       -0.0335
     33 C          -3.7050   -1.0770    0.2414 C.ar    1  UNL1       -0.0335
     34 H           0.9789    1.8099    0.0063 H       1  UNL1        0.0523
     35 H          -0.5735    1.7858   -0.8642 H       1  UNL1        0.0523
     36 H          -0.5508    1.7729    0.9156 H       1  UNL1        0.0523
     37 H           0.1184   -0.2442   -2.0418 H       1  UNL1        0.0573
     38 H           1.6708   -0.2201   -1.1713 H       1  UNL1        0.0573
     39 H           1.1793   -2.5150   -1.8678 H       1  UNL1        0.0467
     40 H           1.0467   -2.4034   -0.0963 H       1  UNL1        0.0467
     41 H          -2.4939   -2.6723   -2.3192 H       1  UNL1        0.0539
     42 H          -1.0488   -2.0174   -3.1262 H       1  UNL1        0.0539
     43 H          -2.1653   -3.9968   -4.6192 H       1  UNL1        0.1548
     44 H          -1.1533   -5.1230   -6.6743 H       1  UNL1        0.0636
     45 H          -0.4617   -7.3045   -7.5798 H       1  UNL1        0.0618
     46 H          -0.0773   -9.2034   -6.0622 H       1  UNL1        0.0618
     47 H          -0.3830   -8.9271   -3.6358 H       1  UNL1        0.0618
     48 H          -1.0669   -6.7476   -2.7197 H       1  UNL1        0.0636
     49 H          -0.8032   -0.6459    1.9062 H       1  UNL1        0.0638
     50 H          -1.9298    1.4534    2.5278 H       1  UNL1        0.0638
     51 H          -3.2241    5.5201    1.0499 H       1  UNL1        0.0466
     52 H          -2.3172    4.1310    1.7024 H       1  UNL1        0.0466
     53 H          -1.2898    5.1420   -0.3879 H       1  UNL1        0.0573
     54 H          -1.6882    3.4129   -0.5401 H       1  UNL1        0.0573
     55 H          -4.5932    4.0479   -2.6068 H       1  UNL1        0.0573
     56 H          -3.6164    2.7743   -1.8352 H       1  UNL1        0.0573
     57 H          -5.6704    3.0148   -0.5568 H       1  UNL1        0.0466
     58 H          -5.4446    4.7794   -0.4434 H       1  UNL1        0.0466
     59 H          -5.3321    0.3095    0.2244 H       1  UNL1        0.0638
     60 H          -4.2039   -1.7882   -0.4003 H       1  UNL1        0.0638
@<TRIPOS>BOND
     1     1     2    1
     2     1    34    1
     3     1    35    1
     4     1    36    1
     5     2     3    1
     6     3     4    1
     7     3    37    1
     8     3    38    1
     9     4     5    1
    10     4    39    1
    11     4    40    1
    12     5     6    1
    13    16     5    1
    14     6     7    1
    15     6    41    1
    16     6    42    1
    17     7     8    2
    18     7     9   am
    19     9    10    1
    20     9    43    1
    21    10    15   ar
    22    10    11   ar
    23    11    12   ar
    24    11    44    1
    25    12    13   ar
    26    12    45    1
    27    13    14   ar
    28    13    46    1
    29    14    15   ar
    30    14    47    1
    31    15    48    1
    32    16    17    2
    33    16    18    2
    34    16    19    1
    35    19    33   ar
    36    19    20   ar
    37    20    21   ar
    38    20    49    1
    39    21    22   ar
    40    21    50    1
    41    22    23    1
    42    22    32   ar
    43    23    24    2
    44    23    25    2
    45    23    26    1
    46    26    31    1
    47    26    27    1
    48    27    28    1
    49    27    51    1
    50    27    52    1
    51    28    29    1
    52    28    53    1
    53    28    54    1
    54    29    30    1
    55    30    31    1
    56    30    55    1
    57    30    56    1
    58    31    57    1
    59    31    58    1
    60    32    33   ar
    61    32    59    1
    62    33    60    1
