@<TRIPOS>MOLECULE
ZINC000018077951
 49 50 0 0 0
SMALL
GASTEIGER

@<TRIPOS>ATOM
      1 C          -0.0634    1.5414    0.0235 C.3     1  UNL1       -0.0507
      2 C          -0.0445    0.0115    0.0193 C.3     1  UNL1        0.0177
      3 N           0.6486   -0.4650   -1.1802 N.3     1  UNL1       -0.1771
      4 C           2.1085   -0.5869   -1.1828 C.3     1  UNL1        0.0177
      5 C           2.5084   -1.9406   -0.5925 C.3     1  UNL1       -0.0507
      6 S          -0.2182   -0.8659   -2.5330 S.O2    1  UNL1        0.0608
      7 O           0.5897   -1.7701   -3.2739 O.2     1  UNL1       -0.1528
      8 O          -1.5311   -1.1807   -2.0897 O.2     1  UNL1       -0.1528
      9 C          -0.3600    0.5919   -3.5126 C.ar    1  UNL1        0.1055
     10 C          -1.4284    1.4489   -3.3258 C.ar    1  UNL1       -0.0351
     11 C          -1.5396    2.5926   -4.0942 C.ar    1  UNL1       -0.0567
     12 C          -0.5822    2.8794   -5.0492 C.ar    1  UNL1       -0.0468
     13 C          -0.7038    4.1259   -5.8873 C.3     1  UNL1       -0.0194
     14 C           0.0147    5.2822   -5.1889 C.3     1  UNL1        0.0282
     15 C          -0.1069    6.5287   -6.0270 C.2     1  UNL1        0.2175
     16 O          -0.7089    6.4956   -7.0794 O.2     1  UNL1       -0.2755
     17 N           0.4534    7.6803   -5.6071 N.am    1  UNL1       -0.2855
     18 C           0.4246    8.8128   -6.4288 C.ar    1  UNL1        0.0334
     19 C           1.4978    9.6942   -6.4365 C.ar    1  UNL1       -0.0395
     20 C           1.4666   10.8110   -7.2484 C.ar    1  UNL1       -0.0469
     21 C           0.3675   11.0523   -8.0530 C.ar    1  UNL1        0.0135
     22 I           0.3241   12.7480   -9.2825 I       1  UNL1       -0.0438
     23 C          -0.7027   10.1759   -8.0477 C.ar    1  UNL1       -0.0469
     24 C          -0.6747    9.0544   -7.2422 C.ar    1  UNL1       -0.0395
     25 C           0.4869    2.0231   -5.2351 C.ar    1  UNL1       -0.0567
     26 C           0.6002    0.8814   -4.4640 C.ar    1  UNL1       -0.0351
     27 H           0.9597    1.9174    0.0216 H       1  UNL1        0.0243
     28 H          -0.5843    1.9007   -0.8640 H       1  UNL1        0.0243
     29 H          -0.5791    1.8959    0.9160 H       1  UNL1        0.0243
     30 H           0.4764   -0.3479    0.9068 H       1  UNL1        0.0441
     31 H          -1.0676   -0.3645    0.0213 H       1  UNL1        0.0441
     32 H           2.4774   -0.5134   -2.2059 H       1  UNL1        0.0441
     33 H           2.5410    0.2134   -0.5823 H       1  UNL1        0.0441
     34 H           2.1395   -2.0141    0.4306 H       1  UNL1        0.0243
     35 H           2.0759   -2.7409   -1.1930 H       1  UNL1        0.0243
     36 H           3.5946   -2.0313   -0.5945 H       1  UNL1        0.0243
     37 H          -2.1764    1.2248   -2.5796 H       1  UNL1        0.0637
     38 H          -2.3747    3.2618   -3.9487 H       1  UNL1        0.0621
     39 H          -0.2505    3.9531   -6.8634 H       1  UNL1        0.0318
     40 H          -1.7569    4.3767   -6.0150 H       1  UNL1        0.0318
     41 H          -0.4386    5.4550   -4.2128 H       1  UNL1        0.0362
     42 H           1.0677    5.0315   -5.0612 H       1  UNL1        0.0362
     43 H           0.8766    7.7242   -4.7354 H       1  UNL1        0.1548
     44 H           2.3558    9.5066   -5.8080 H       1  UNL1        0.0636
     45 H           2.3009   11.4967   -7.2548 H       1  UNL1        0.0628
     46 H          -1.5595   10.3668   -8.6770 H       1  UNL1        0.0628
     47 H          -1.5105    8.3705   -7.2385 H       1  UNL1        0.0636
     48 H           1.2351    2.2474   -5.9810 H       1  UNL1        0.0621
     49 H           1.4354    0.2123   -4.6092 H       1  UNL1        0.0637
@<TRIPOS>BOND
     1     1     2    1
     2     1    27    1
     3     1    28    1
     4     1    29    1
     5     2     3    1
     6     2    30    1
     7     2    31    1
     8     3     4    1
     9     6     3    1
    10     4     5    1
    11     4    32    1
    12     4    33    1
    13     5    34    1
    14     5    35    1
    15     5    36    1
    16     6     7    2
    17     6     8    2
    18     6     9    1
    19     9    26   ar
    20     9    10   ar
    21    10    11   ar
    22    10    37    1
    23    11    12   ar
    24    11    38    1
    25    12    13    1
    26    12    25   ar
    27    13    14    1
    28    13    39    1
    29    13    40    1
    30    14    15    1
    31    14    41    1
    32    14    42    1
    33    15    16    2
    34    15    17   am
    35    17    18    1
    36    17    43    1
    37    18    24   ar
    38    18    19   ar
    39    19    20   ar
    40    19    44    1
    41    20    21   ar
    42    20    45    1
    43    21    22    1
    44    21    23   ar
    45    23    24   ar
    46    23    46    1
    47    24    47    1
    48    25    26   ar
    49    25    48    1
    50    26    49    1
