@<TRIPOS>MOLECULE
ZINC000006552265
 59 61 0 0 0
SMALL
GASTEIGER

@<TRIPOS>ATOM
      1 C           0.0004    1.4268    0.0273 C.3     1  UNL1        0.0365
      2 O           0.0129   -0.0021    0.0132 O.3     1  UNL1       -0.3817
      3 C          -1.2873   -0.5949    0.0240 C.3     1  UNL1        0.0617
      4 C          -1.1531   -2.1189    0.0075 C.3     1  UNL1        0.0444
      5 N          -0.5128   -2.5663    1.2469 N.3     1  UNL1       -0.1656
      6 C          -1.3201   -2.7908    2.4486 C.3     1  UNL1        0.0972
      7 C          -1.8962   -4.1830    2.4139 C.2     1  UNL1        0.2330
      8 O          -1.6561   -4.9154    1.4774 O.2     1  UNL1       -0.2740
      9 N          -2.6782   -4.6141    3.4233 N.am    1  UNL1       -0.2844
     10 C          -3.2917   -5.8693    3.3461 C.ar    1  UNL1        0.0334
     11 C          -4.5590   -6.0585    3.8815 C.ar    1  UNL1       -0.0405
     12 C          -5.1618   -7.2987    3.8037 C.ar    1  UNL1       -0.0600
     13 C          -4.5045   -8.3515    3.1940 C.ar    1  UNL1       -0.0616
     14 C          -3.2423   -8.1665    2.6604 C.ar    1  UNL1       -0.0600
     15 C          -2.6368   -6.9271    2.7290 C.ar    1  UNL1       -0.0405
     16 S           1.1233   -2.8180    1.2896 S.O2    1  UNL1        0.0613
     17 O           1.3616   -3.7284    2.3543 O.2     1  UNL1       -0.1528
     18 O           1.5261   -3.0665   -0.0503 O.2     1  UNL1       -0.1528
     19 C           1.8734   -1.2947    1.7602 C.ar    1  UNL1        0.1056
     20 C           2.2413   -0.3777    0.7934 C.ar    1  UNL1       -0.0335
     21 C           2.8297    0.8174    1.1627 C.ar    1  UNL1       -0.0335
     22 C           3.0498    1.0957    2.4987 C.ar    1  UNL1        0.1056
     23 S           3.8004    2.6188    2.9693 S.O2    1  UNL1        0.0609
     24 O           4.3852    2.4004    4.2458 O.2     1  UNL1       -0.1528
     25 O           4.5403    3.0668    1.8418 O.2     1  UNL1       -0.1528
     26 N           2.5815    3.7169    3.1950 N.3     1  UNL1       -0.1766
     27 C           2.0206    4.5990    2.1612 C.3     1  UNL1        0.0205
     28 C           0.9321    5.4605    2.8353 C.3     1  UNL1       -0.0373
     29 C           1.3309    5.4142    4.3340 C.3     1  UNL1       -0.0373
     30 C           1.8747    3.9672    4.4643 C.3     1  UNL1        0.0205
     31 C           2.6807    0.1793    3.4655 C.ar    1  UNL1       -0.0335
     32 C           2.0888   -1.0141    3.0966 C.ar    1  UNL1       -0.0335
     33 H           1.0247    1.7992    0.0179 H       1  UNL1        0.0523
     34 H          -0.5279    1.7942   -0.8525 H       1  UNL1        0.0523
     35 H          -0.5052    1.7768    0.9273 H       1  UNL1        0.0523
     36 H          -1.8196   -0.2868    0.9239 H       1  UNL1        0.0573
     37 H          -1.8423   -0.2694   -0.8558 H       1  UNL1        0.0573
     38 H          -2.1421   -2.5699   -0.0739 H       1  UNL1        0.0467
     39 H          -0.5448   -2.4208   -0.8451 H       1  UNL1        0.0467
     40 H          -0.6935   -2.6789    3.3334 H       1  UNL1        0.0539
     41 H          -2.1307   -2.0630    2.4831 H       1  UNL1        0.0539
     42 H          -2.8158   -4.0542    4.2034 H       1  UNL1        0.1548
     43 H          -5.0726   -5.2368    4.3584 H       1  UNL1        0.0636
     44 H          -6.1474   -7.4465    4.2198 H       1  UNL1        0.0618
     45 H          -4.9778   -9.3205    3.1347 H       1  UNL1        0.0618
     46 H          -2.7312   -8.9909    2.1854 H       1  UNL1        0.0618
     47 H          -1.6510   -6.7832    2.3121 H       1  UNL1        0.0636
     48 H           2.0693   -0.5951   -0.2504 H       1  UNL1        0.0638
     49 H           3.1177    1.5336    0.4073 H       1  UNL1        0.0638
     50 H           2.8034    5.2406    1.7567 H       1  UNL1        0.0444
     51 H           1.5792    4.0014    1.3636 H       1  UNL1        0.0444
     52 H           0.9622    6.4833    2.4597 H       1  UNL1        0.0278
     53 H          -0.0546    5.0223    2.6850 H       1  UNL1        0.0278
     54 H           2.1061    6.1479    4.5549 H       1  UNL1        0.0278
     55 H           0.4613    5.5620    4.9745 H       1  UNL1        0.0278
     56 H           1.0526    3.2630    4.5922 H       1  UNL1        0.0444
     57 H           2.5692    3.8969    5.3015 H       1  UNL1        0.0444
     58 H           2.8524    0.3969    4.5094 H       1  UNL1        0.0638
     59 H           1.8004   -1.7301    3.8519 H       1  UNL1        0.0638
@<TRIPOS>BOND
     1     1     2    1
     2     1    33    1
     3     1    34    1
     4     1    35    1
     5     2     3    1
     6     3     4    1
     7     3    36    1
     8     3    37    1
     9     4     5    1
    10     4    38    1
    11     4    39    1
    12     5     6    1
    13    16     5    1
    14     6     7    1
    15     6    40    1
    16     6    41    1
    17     7     8    2
    18     7     9   am
    19     9    10    1
    20     9    42    1
    21    10    15   ar
    22    10    11   ar
    23    11    12   ar
    24    11    43    1
    25    12    13   ar
    26    12    44    1
    27    13    14   ar
    28    13    45    1
    29    14    15   ar
    30    14    46    1
    31    15    47    1
    32    16    17    2
    33    16    18    2
    34    16    19    1
    35    19    32   ar
    36    19    20   ar
    37    20    21   ar
    38    20    48    1
    39    21    22   ar
    40    21    49    1
    41    22    23    1
    42    22    31   ar
    43    23    24    2
    44    23    25    2
    45    23    26    1
    46    26    30    1
    47    26    27    1
    48    27    28    1
    49    27    50    1
    50    27    51    1
    51    28    29    1
    52    28    52    1
    53    28    53    1
    54    29    30    1
    55    29    54    1
    56    29    55    1
    57    30    56    1
    58    30    57    1
    59    31    32   ar
    60    31    58    1
    61    32    59    1
