@<TRIPOS>MOLECULE
ZINC000000387133
 39 40 0 0 0
SMALL
GASTEIGER

@<TRIPOS>ATOM
      1 C          -0.0434    1.5465   -0.0720 C.3     1  UNL1       -0.0478
      2 C          -0.0264    0.0393    0.1909 C.3     1  UNL1        0.0294
      3 H          -1.0462   -0.3184    0.3323 H       1  UNL1        0.0477
      4 C           0.6106   -0.6827   -1.0006 C.3     1  UNL1       -0.0359
      5 C           2.0822   -0.2770   -1.1104 C.3     1  UNL1       -0.0501
      6 C           2.8246   -0.6951    0.1609 C.3     1  UNL1       -0.0359
      7 C           2.2127    0.0268    1.3655 C.3     1  UNL1        0.0294
      8 H           2.3831    1.0995    1.2740 H       1  UNL1        0.0477
      9 C           2.8586   -0.4870    2.6538 C.3     1  UNL1       -0.0478
     10 N           0.7656   -0.2414    1.3962 N.3     1  UNL1       -0.1710
     11 S           0.0487   -0.8485    2.7600 S.O2    1  UNL1        0.0613
     12 O          -1.2114   -1.3654    2.3547 O.2     1  UNL1       -0.1528
     13 O           1.0353   -1.6322    3.4170 O.2     1  UNL1       -0.1528
     14 C          -0.2913    0.5158    3.8219 C.ar    1  UNL1        0.1060
     15 C           0.6535    0.9267    4.7432 C.ar    1  UNL1       -0.0353
     16 C           0.3867    1.9972    5.5764 C.ar    1  UNL1       -0.0594
     17 C          -0.8247    2.6568    5.4878 C.ar    1  UNL1       -0.0500
     18 C          -1.7694    2.2464    4.5655 C.ar    1  UNL1        0.0567
     19 C          -3.0904    2.9653    4.4692 C.3     1  UNL1        0.4175
     20 F          -3.1260    4.0032    5.4066 F       1  UNL1       -0.1659
     21 F          -3.2410    3.4936    3.1826 F       1  UNL1       -0.1659
     22 F          -4.1305    2.0664    4.7289 F       1  UNL1       -0.1659
     23 C          -1.5010    1.1789    3.7296 C.ar    1  UNL1       -0.0237
     24 H           0.9772    1.9023   -0.2131 H       1  UNL1        0.0245
     25 H          -0.6272    1.7522   -0.9693 H       1  UNL1        0.0245
     26 H          -0.4924    2.0587    0.7789 H       1  UNL1        0.0245
     27 H           0.5404   -1.7603   -0.8528 H       1  UNL1        0.0281
     28 H           0.0876   -0.4056   -1.9158 H       1  UNL1        0.0281
     29 H           2.5315   -0.7704   -1.9722 H       1  UNL1        0.0266
     30 H           2.1527    0.8037   -1.2333 H       1  UNL1        0.0266
     31 H           2.7335   -1.7726    0.2977 H       1  UNL1        0.0281
     32 H           3.8774   -0.4268    0.0723 H       1  UNL1        0.0281
     33 H           3.9020   -0.1735    2.6872 H       1  UNL1        0.0245
     34 H           2.3287   -0.0781    3.5141 H       1  UNL1        0.0245
     35 H           2.8053   -1.5754    2.6779 H       1  UNL1        0.0245
     36 H           1.6000    0.4113    4.8125 H       1  UNL1        0.0637
     37 H           1.1247    2.3178    6.2968 H       1  UNL1        0.0618
     38 H          -1.0334    3.4926    6.1391 H       1  UNL1        0.0623
     39 H          -2.2390    0.8583    3.0092 H       1  UNL1        0.0642
@<TRIPOS>BOND
     1     1     2    1
     2     1    24    1
     3     1    25    1
     4     1    26    1
     5     2     3    1
     6     2    10    1
     7     2     4    1
     8     4     5    1
     9     4    27    1
    10     4    28    1
    11     5     6    1
    12     5    29    1
    13     5    30    1
    14     6     7    1
    15     6    31    1
    16     6    32    1
    17     7     8    1
    18     7     9    1
    19     7    10    1
    20     9    33    1
    21     9    34    1
    22     9    35    1
    23    11    10    1
    24    11    12    2
    25    11    13    2
    26    11    14    1
    27    14    23   ar
    28    14    15   ar
    29    15    16   ar
    30    15    36    1
    31    16    17   ar
    32    16    37    1
    33    17    18   ar
    34    17    38    1
    35    18    19    1
    36    18    23   ar
    37    19    20    1
    38    19    21    1
    39    19    22    1
    40    23    39    1
