@<TRIPOS>MOLECULE
ZINC000408618310
 58 59 0 0 0
SMALL
GASTEIGER

@<TRIPOS>ATOM
      1 C          -0.0173    1.4248    0.0099 C.3     1  UNL1        0.0365
      2 O           0.0021   -0.0041    0.0020 O.3     1  UNL1       -0.3812
      3 C          -1.2953   -0.6030    0.0112 C.3     1  UNL1        0.0654
      4 C          -1.1538   -2.1264    0.0017 C.3     1  UNL1        0.0437
      5 H          -2.1404   -2.5824   -0.0809 H       1  UNL1        0.0518
      6 C          -0.2942   -2.5513   -1.1905 C.3     1  UNL1       -0.0445
      7 N          -0.5155   -2.5654    1.2451 N.am    1  UNL1       -0.3094
      8 C          -0.7243   -3.8149    1.7051 C.2     1  UNL1        0.2291
      9 O          -1.4405   -4.5759    1.0897 O.2     1  UNL1       -0.2743
     10 C          -0.0677   -4.2664    2.9842 C.3     1  UNL1        0.0971
     11 N          -0.4493   -5.6524    3.2662 N.3     1  UNL1       -0.1635
     12 C           0.2977   -6.7561    2.6579 C.3     1  UNL1        0.0460
     13 C           1.5065   -7.0696    3.5014 C.ar    1  UNL1       -0.0317
     14 C           2.7046   -6.4239    3.2592 C.ar    1  UNL1       -0.0573
     15 C           3.8135   -6.7113    4.0329 C.ar    1  UNL1       -0.0615
     16 C           3.7242   -7.6442    5.0491 C.ar    1  UNL1       -0.0617
     17 C           2.5259   -8.2892    5.2919 C.ar    1  UNL1       -0.0615
     18 C           1.4159   -7.9986    4.5210 C.ar    1  UNL1       -0.0573
     19 S          -1.7252   -5.9715    4.2725 S.O2    1  UNL1        0.0617
     20 O          -1.5163   -7.2813    4.7824 O.2     1  UNL1       -0.1528
     21 O          -1.8762   -4.8289    5.1037 O.2     1  UNL1       -0.1528
     22 C          -3.1723   -6.0525    3.2705 C.ar    1  UNL1        0.1092
     23 C          -3.9078   -4.9079    3.0277 C.ar    1  UNL1       -0.0317
     24 C          -5.0445   -4.9664    2.2424 C.ar    1  UNL1       -0.0145
     25 C          -5.4479   -6.1739    1.6966 C.ar    1  UNL1        0.1616
     26 O          -6.5653   -6.2331    0.9237 O.3     1  UNL1       -0.4915
     27 C          -7.2756   -5.0107    0.7156 C.3     1  UNL1        0.0790
     28 C          -4.7068   -7.3267    1.9407 C.ar    1  UNL1        0.1633
     29 O          -5.0986   -8.5145    1.4067 O.3     1  UNL1       -0.4914
     30 C          -4.2897   -9.6556    1.6995 C.3     1  UNL1        0.0790
     31 C          -3.5663   -7.2602    2.7241 C.ar    1  UNL1        0.0101
     32 H           1.0053    1.8021    0.0021 H       1  UNL1        0.0523
     33 H          -0.5445    1.7859   -0.8732 H       1  UNL1        0.0523
     34 H          -0.5275    1.7763    0.9067 H       1  UNL1        0.0523
     35 H          -1.8320   -0.2936    0.9080 H       1  UNL1        0.0578
     36 H          -1.8490   -0.2840   -0.8718 H       1  UNL1        0.0578
     37 H          -0.7691   -2.2247   -2.1157 H       1  UNL1        0.0248
     38 H           0.6924   -2.0953   -1.1079 H       1  UNL1        0.0248
     39 H          -0.1934   -3.6366   -1.1973 H       1  UNL1        0.0248
     40 H           0.0573   -1.9567    1.7373 H       1  UNL1        0.1491
     41 H           1.0153   -4.2020    2.8790 H       1  UNL1        0.0539
     42 H          -0.3918   -3.6262    3.8046 H       1  UNL1        0.0539
     43 H          -0.3412   -7.6372    2.5970 H       1  UNL1        0.0493
     44 H           0.6180   -6.4696    1.6562 H       1  UNL1        0.0493
     45 H           2.7743   -5.6951    2.4652 H       1  UNL1        0.0621
     46 H           4.7497   -6.2074    3.8432 H       1  UNL1        0.0618
     47 H           4.5907   -7.8693    5.6531 H       1  UNL1        0.0618
     48 H           2.4563   -9.0183    6.0857 H       1  UNL1        0.0618
     49 H           0.4797   -8.5025    4.7107 H       1  UNL1        0.0621
     50 H          -3.5944   -3.9658    3.4527 H       1  UNL1        0.0638
     51 H          -5.6179   -4.0706    2.0548 H       1  UNL1        0.0656
     52 H          -8.1436   -5.1980    0.0834 H       1  UNL1        0.0660
     53 H          -7.6045   -4.6136    1.6759 H       1  UNL1        0.0660
     54 H          -6.6206   -4.2882    0.2287 H       1  UNL1        0.0660
     55 H          -4.7127  -10.5350    1.2138 H       1  UNL1        0.0660
     56 H          -3.2779   -9.4880    1.3305 H       1  UNL1        0.0660
     57 H          -4.2617   -9.8141    2.7775 H       1  UNL1        0.0660
     58 H          -2.9895   -8.1531    2.9150 H       1  UNL1        0.0675
@<TRIPOS>BOND
     1     1     2    1
     2     1    32    1
     3     1    33    1
     4     1    34    1
     5     2     3    1
     6     3     4    1
     7     3    35    1
     8     3    36    1
     9     4     5    1
    10     4     6    1
    11     4     7    1
    12     6    37    1
    13     6    38    1
    14     6    39    1
    15     7     8   am
    16     7    40    1
    17     8     9    2
    18     8    10    1
    19    10    11    1
    20    10    41    1
    21    10    42    1
    22    11    12    1
    23    19    11    1
    24    12    13    1
    25    12    43    1
    26    12    44    1
    27    13    18   ar
    28    13    14   ar
    29    14    15   ar
    30    14    45    1
    31    15    16   ar
    32    15    46    1
    33    16    17   ar
    34    16    47    1
    35    17    18   ar
    36    17    48    1
    37    18    49    1
    38    19    20    2
    39    19    21    2
    40    19    22    1
    41    22    31   ar
    42    22    23   ar
    43    23    24   ar
    44    23    50    1
    45    24    25   ar
    46    24    51    1
    47    25    26    1
    48    25    28   ar
    49    26    27    1
    50    27    52    1
    51    27    53    1
    52    27    54    1
    53    28    29    1
    54    28    31   ar
    55    29    30    1
    56    30    55    1
    57    30    56    1
    58    30    57    1
    59    31    58    1
