@<TRIPOS>MOLECULE
ZINC000409178969
 56 58 0 0 0
SMALL
GASTEIGER

@<TRIPOS>ATOM
      1 C           0.1471    1.6878   -0.1674 C.3     1  UNL1       -0.0397
      2 C          -0.2247    0.2274   -0.1606 C.ar    1  UNL1       -0.0498
      3 C          -0.2732   -0.4679    1.0332 C.ar    1  UNL1       -0.0540
      4 C          -0.6143   -1.8075    1.0394 C.ar    1  UNL1       -0.0236
      5 C          -0.6666   -2.5656    2.3408 C.3     1  UNL1       -0.0378
      6 C          -0.9078   -2.4516   -0.1480 C.ar    1  UNL1        0.1113
      7 S          -1.3431   -4.1589   -0.1399 S.O2    1  UNL1        0.0614
      8 O          -1.9182   -4.4204    1.1330 O.2     1  UNL1       -0.1528
      9 O          -2.0204   -4.4061   -1.3644 O.2     1  UNL1       -0.1528
     10 N           0.0672   -5.0247   -0.2026 N.3     1  UNL1       -0.1765
     11 C           0.7397   -5.2681   -1.4860 C.3     1  UNL1        0.0212
     12 C           2.1950   -4.8024   -1.3762 C.3     1  UNL1       -0.0274
     13 C           2.8572   -5.4890   -0.1795 C.3     1  UNL1        0.0383
     14 C           4.2988   -5.0592   -0.0886 C.2     1  UNL1        0.2204
     15 O           4.7518   -4.2807   -0.9008 O.2     1  UNL1       -0.2752
     16 N           5.0845   -5.5400    0.8952 N.am    1  UNL1       -0.2853
     17 C           6.4450   -5.2141    0.9263 C.ar    1  UNL1        0.0334
     18 C           7.3749   -6.1500    1.3600 C.ar    1  UNL1       -0.0399
     19 C           8.7170   -5.8253    1.3895 C.ar    1  UNL1       -0.0484
     20 C           9.1350   -4.5697    0.9883 C.ar    1  UNL1        0.0549
     21 C          10.6002   -4.2186    1.0223 C.3     1  UNL1        0.4174
     22 F          11.1876   -4.5496   -0.2035 F       1  UNL1       -0.1659
     23 F          10.7457   -2.8466    1.2538 F       1  UNL1       -0.1659
     24 F          11.2274   -4.9337    2.0482 F       1  UNL1       -0.1659
     25 C           8.2116   -3.6358    0.5556 C.ar    1  UNL1       -0.0484
     26 C           6.8687   -3.9562    0.5182 C.ar    1  UNL1       -0.0399
     27 C           2.1257   -5.0950    1.1058 C.3     1  UNL1       -0.0274
     28 C           0.6729   -5.5588    1.0248 C.3     1  UNL1        0.0212
     29 C          -0.8602   -1.7560   -1.3416 C.ar    1  UNL1       -0.0236
     30 C          -1.1806   -2.4581   -2.6361 C.3     1  UNL1       -0.0378
     31 C          -0.5228   -0.4155   -1.3475 C.ar    1  UNL1       -0.0540
     32 H          -0.7531    2.2924   -0.0573 H       1  UNL1        0.0278
     33 H           0.8266    1.8936    0.6597 H       1  UNL1        0.0278
     34 H           0.6369    1.9336   -1.1097 H       1  UNL1        0.0278
     35 H          -0.0442    0.0354    1.9609 H       1  UNL1        0.0623
     36 H          -1.6926   -2.5860    2.7084 H       1  UNL1        0.0278
     37 H          -0.3175   -3.5858    2.1813 H       1  UNL1        0.0278
     38 H          -0.0277   -2.0734    3.0740 H       1  UNL1        0.0278
     39 H           0.7133   -6.3332   -1.7161 H       1  UNL1        0.0444
     40 H           0.2357   -4.7092   -2.2745 H       1  UNL1        0.0444
     41 H           2.7307   -5.0649   -2.2885 H       1  UNL1        0.0285
     42 H           2.2216   -3.7218   -1.2362 H       1  UNL1        0.0285
     43 H           2.8080   -6.5702   -0.3082 H       1  UNL1        0.0395
     44 H           4.7070   -6.1118    1.5818 H       1  UNL1        0.1548
     45 H           7.0489   -7.1305    1.6741 H       1  UNL1        0.0636
     46 H           9.4406   -6.5526    1.7266 H       1  UNL1        0.0624
     47 H           8.5413   -2.6560    0.2429 H       1  UNL1        0.0624
     48 H           6.1480   -3.2263    0.1802 H       1  UNL1        0.0636
     49 H           2.6122   -5.5657    1.9601 H       1  UNL1        0.0285
     50 H           2.1530   -4.0116    1.2224 H       1  UNL1        0.0285
     51 H           0.1240   -5.1944    1.8932 H       1  UNL1        0.0444
     52 H           0.6379   -6.6479    0.9986 H       1  UNL1        0.0444
     53 H          -2.2604   -2.4709   -2.7847 H       1  UNL1        0.0278
     54 H          -0.7063   -1.9297   -3.4630 H       1  UNL1        0.0278
     55 H          -0.8071   -3.4813   -2.5966 H       1  UNL1        0.0278
     56 H          -0.4856    0.1279   -2.2801 H       1  UNL1        0.0623
@<TRIPOS>BOND
     1     1     2    1
     2     1    32    1
     3     1    33    1
     4     1    34    1
     5     2    31   ar
     6     2     3   ar
     7     3     4   ar
     8     3    35    1
     9     4     5    1
    10     4     6   ar
    11     5    36    1
    12     5    37    1
    13     5    38    1
    14     6     7    1
    15     6    29   ar
    16     7     8    2
    17     7     9    2
    18     7    10    1
    19    10    28    1
    20    10    11    1
    21    11    12    1
    22    11    39    1
    23    11    40    1
    24    12    13    1
    25    12    41    1
    26    12    42    1
    27    13    14    1
    28    13    27    1
    29    13    43    1
    30    14    15    2
    31    14    16   am
    32    16    17    1
    33    16    44    1
    34    17    26   ar
    35    17    18   ar
    36    18    19   ar
    37    18    45    1
    38    19    20   ar
    39    19    46    1
    40    20    21    1
    41    20    25   ar
    42    21    22    1
    43    21    23    1
    44    21    24    1
    45    25    26   ar
    46    25    47    1
    47    26    48    1
    48    27    28    1
    49    27    49    1
    50    27    50    1
    51    28    51    1
    52    28    52    1
    53    29    30    1
    54    29    31   ar
    55    30    53    1
    56    30    54    1
    57    30    55    1
    58    31    56    1
