@<TRIPOS>MOLECULE
ZINC000015743890
 53 55 0 0 0
SMALL
GASTEIGER

@<TRIPOS>ATOM
      1 C          -0.0187    1.5258    0.0104 C.3     1  UNL1       -0.0580
      2 C           0.0021   -0.0041    0.0020 C.3     1  UNL1       -0.0104
      3 H           0.5123   -0.3556   -0.8948 H       1  UNL1        0.0351
      4 C          -1.4333   -0.5336    0.0129 C.3     1  UNL1        0.0307
      5 C          -2.1247   -0.1373   -1.2662 C.2     1  UNL1        0.2162
      6 O          -1.5281    0.5055   -2.1039 O.2     1  UNL1       -0.2756
      7 N          -3.4060   -0.4971   -1.4791 N.am    1  UNL1       -0.2989
      8 C          -4.1431   -1.2707   -0.4702 C.3     1  UNL1        0.0291
      9 C          -5.4278   -0.5125   -0.1135 C.3     1  UNL1        0.0363
     10 N          -6.1129   -0.1378   -1.3586 N.3     1  UNL1       -0.1736
     11 S          -7.6875   -0.5790   -1.6197 S.O2    1  UNL1        0.0609
     12 O          -7.8751   -0.5819   -3.0282 O.2     1  UNL1       -0.1528
     13 O          -7.9267   -1.7159   -0.8014 O.2     1  UNL1       -0.1528
     14 C          -8.7033    0.7133   -0.9851 C.ar    1  UNL1        0.1055
     15 C          -9.1218    0.6800    0.3320 C.ar    1  UNL1       -0.0348
     16 C          -9.9188    1.6939    0.8299 C.ar    1  UNL1       -0.0483
     17 C         -10.2968    2.7413    0.0108 C.ar    1  UNL1        0.0549
     18 C         -11.1660    3.8463    0.5534 C.3     1  UNL1        0.4174
     19 F         -10.3578    4.8587    1.0815 F       1  UNL1       -0.1659
     20 F         -11.9540    4.3689   -0.4777 F       1  UNL1       -0.1659
     21 F         -11.9933    3.3372    1.5602 F       1  UNL1       -0.1659
     22 C          -9.8772    2.7753   -1.3059 C.ar    1  UNL1       -0.0483
     23 C          -9.0771    1.7634   -1.8027 C.ar    1  UNL1       -0.0348
     24 C          -5.3757    0.6358   -2.3675 C.3     1  UNL1        0.0363
     25 C          -4.0928   -0.1176   -2.7217 C.3     1  UNL1        0.0291
     26 C           0.7309   -0.5033    1.2229 C.ar    1  UNL1       -0.0441
     27 C           0.2630   -0.1872    2.4847 C.ar    1  UNL1       -0.0583
     28 C           0.9315   -0.6452    3.6046 C.ar    1  UNL1       -0.0615
     29 C           2.0678   -1.4195    3.4627 C.ar    1  UNL1       -0.0617
     30 C           2.5353   -1.7363    2.2010 C.ar    1  UNL1       -0.0615
     31 C           1.8643   -1.2820    1.0811 C.ar    1  UNL1       -0.0583
     32 H           1.0039    1.9031    0.0027 H       1  UNL1        0.0236
     33 H          -0.5459    1.8868   -0.8726 H       1  UNL1        0.0236
     34 H          -0.5289    1.8773    0.9072 H       1  UNL1        0.0236
     35 H          -1.4190   -1.6203    0.0965 H       1  UNL1        0.0364
     36 H          -1.9701   -0.1109    0.8621 H       1  UNL1        0.0364
     37 H          -4.3970   -2.2507   -0.8742 H       1  UNL1        0.0478
     38 H          -3.5281   -1.3882    0.4220 H       1  UNL1        0.0478
     39 H          -6.0772   -1.1534    0.4828 H       1  UNL1        0.0459
     40 H          -5.1776    0.3857    0.4510 H       1  UNL1        0.0459
     41 H          -8.8265   -0.1383    0.9719 H       1  UNL1        0.0637
     42 H         -10.2463    1.6674    1.8586 H       1  UNL1        0.0624
     43 H         -10.1723    3.5938   -1.9457 H       1  UNL1        0.0624
     44 H          -8.7493    1.7900   -2.8314 H       1  UNL1        0.0637
     45 H          -5.9908    0.7533   -3.2596 H       1  UNL1        0.0459
     46 H          -5.1219    1.6158   -1.9634 H       1  UNL1        0.0459
     47 H          -3.4444    0.5244   -3.3180 H       1  UNL1        0.0478
     48 H          -4.3405   -1.0167   -3.2858 H       1  UNL1        0.0478
     49 H          -0.6248    0.4177    2.5955 H       1  UNL1        0.0620
     50 H           0.5663   -0.3977    4.5903 H       1  UNL1        0.0618
     51 H           2.5906   -1.7767    4.3377 H       1  UNL1        0.0618
     52 H           3.4233   -2.3410    2.0902 H       1  UNL1        0.0618
     53 H           2.2295   -1.5295    0.0953 H       1  UNL1        0.0620
@<TRIPOS>BOND
     1     1     2    1
     2     1    32    1
     3     1    33    1
     4     1    34    1
     5     2     3    1
     6     2     4    1
     7     2    26    1
     8     4     5    1
     9     4    35    1
    10     4    36    1
    11     5     6    2
    12     5     7   am
    13     7    25    1
    14     7     8    1
    15     8     9    1
    16     8    37    1
    17     8    38    1
    18     9    10    1
    19     9    39    1
    20     9    40    1
    21    11    10    1
    22    10    24    1
    23    11    12    2
    24    11    13    2
    25    11    14    1
    26    14    23   ar
    27    14    15   ar
    28    15    16   ar
    29    15    41    1
    30    16    17   ar
    31    16    42    1
    32    17    18    1
    33    17    22   ar
    34    18    19    1
    35    18    20    1
    36    18    21    1
    37    22    23   ar
    38    22    43    1
    39    23    44    1
    40    24    25    1
    41    24    45    1
    42    24    46    1
    43    25    47    1
    44    25    48    1
    45    26    31   ar
    46    26    27   ar
    47    27    28   ar
    48    27    49    1
    49    28    29   ar
    50    28    50    1
    51    29    30   ar
    52    29    51    1
    53    30    31   ar
    54    30    52    1
    55    31    53    1
