@<TRIPOS>MOLECULE
ZINC000013056461
 57 58 0 0 0
SMALL
GASTEIGER

@<TRIPOS>ATOM
      1 C           0.3413    0.1136    1.2463 C.3     1  UNL1       -0.0467
      2 C           0.8025   -0.3153   -0.1480 C.3     1  UNL1        0.0207
      3 C           2.1597    0.3213   -0.4545 C.3     1  UNL1       -0.0467
      4 N           0.9259   -1.7743   -0.1942 N.am    1  UNL1       -0.2954
      5 C           0.2561   -2.4780   -1.1283 C.2     1  UNL1        0.2301
      6 O           0.3582   -3.6859   -1.1666 O.2     1  UNL1       -0.2742
      7 C          -0.6199   -1.7640   -2.1253 C.3     1  UNL1        0.0760
      8 N          -1.3393   -2.7516   -2.9408 N.3     1  UNL1       -0.2915
      9 C          -2.1727   -3.6216   -2.1002 C.3     1  UNL1        0.0138
     10 C          -3.0401   -4.5126   -2.9956 C.3     1  UNL1        0.0333
     11 N          -2.1634   -5.2176   -3.9430 N.3     1  UNL1       -0.1741
     12 S          -2.2566   -6.8608   -4.1260 S.O2    1  UNL1        0.0609
     13 O          -0.9972   -7.2801   -4.6333 O.2     1  UNL1       -0.1528
     14 O          -2.8174   -7.3674   -2.9225 O.2     1  UNL1       -0.1528
     15 C          -3.4355   -7.1782   -5.3964 C.ar    1  UNL1        0.1060
     16 C          -4.7704   -7.3388   -5.0760 C.ar    1  UNL1       -0.0353
     17 C          -5.6954   -7.5878   -6.0729 C.ar    1  UNL1       -0.0594
     18 C          -5.2854   -7.6757   -7.3899 C.ar    1  UNL1       -0.0500
     19 C          -3.9503   -7.5141   -7.7105 C.ar    1  UNL1        0.0567
     20 C          -3.5032   -7.6103   -9.1464 C.3     1  UNL1        0.4175
     21 F          -4.6097   -7.8668   -9.9632 F       1  UNL1       -0.1659
     22 F          -2.9088   -6.4039   -9.5316 F       1  UNL1       -0.1659
     23 F          -2.5760   -8.6497   -9.2774 F       1  UNL1       -0.1659
     24 C          -3.0261   -7.2609   -6.7144 C.ar    1  UNL1       -0.0237
     25 C          -1.2021   -4.4244   -4.7240 C.3     1  UNL1        0.0333
     26 C          -0.4070   -3.5369   -3.7605 C.3     1  UNL1        0.0138
     27 C           1.7775   -2.4685    0.7749 C.3     1  UNL1        0.0207
     28 C           0.9342   -3.4647    1.5732 C.3     1  UNL1       -0.0467
     29 C           2.8869   -3.2178    0.0343 C.3     1  UNL1       -0.0467
     30 H           0.3280    1.2019    1.3059 H       1  UNL1        0.0247
     31 H          -0.6608   -0.2727    1.4323 H       1  UNL1        0.0247
     32 H           1.0281   -0.2828    1.9942 H       1  UNL1        0.0247
     33 H           0.0725    0.0113   -0.8886 H       1  UNL1        0.0495
     34 H           2.9085   -0.0705    0.2339 H       1  UNL1        0.0247
     35 H           2.4487    0.0852   -1.4786 H       1  UNL1        0.0247
     36 H           2.0886    1.4026   -0.3371 H       1  UNL1        0.0247
     37 H          -1.3379   -1.1381   -1.5953 H       1  UNL1        0.0522
     38 H          -0.0016   -1.1405   -2.7712 H       1  UNL1        0.0522
     39 H          -1.5329   -4.2458   -1.4764 H       1  UNL1        0.0440
     40 H          -2.8137   -3.0091   -1.4662 H       1  UNL1        0.0440
     41 H          -3.5750   -5.2379   -2.3824 H       1  UNL1        0.0456
     42 H          -3.7526   -3.8969   -3.5447 H       1  UNL1        0.0456
     43 H          -5.0908   -7.2702   -4.0469 H       1  UNL1        0.0637
     44 H          -6.7384   -7.7141   -5.8224 H       1  UNL1        0.0618
     45 H          -6.0079   -7.8709   -8.1685 H       1  UNL1        0.0623
     46 H          -1.9832   -7.1347   -6.9648 H       1  UNL1        0.0642
     47 H          -0.5217   -5.0914   -5.2534 H       1  UNL1        0.0456
     48 H          -1.7379   -3.8003   -5.4392 H       1  UNL1        0.0456
     49 H           0.2325   -2.8630   -4.3306 H       1  UNL1        0.0440
     50 H           0.2082   -4.1623   -3.1136 H       1  UNL1        0.0440
     51 H           2.2214   -1.7414    1.4549 H       1  UNL1        0.0495
     52 H           0.5693   -4.2471    0.9078 H       1  UNL1        0.0247
     53 H           1.5450   -3.9109    2.3580 H       1  UNL1        0.0247
     54 H           0.0874   -2.9459    2.0226 H       1  UNL1        0.0247
     55 H           3.5256   -2.5022   -0.4834 H       1  UNL1        0.0247
     56 H           3.4824   -3.7851    0.7497 H       1  UNL1        0.0247
     57 H           2.4432   -3.8999   -0.6909 H       1  UNL1        0.0247
@<TRIPOS>BOND
     1     1     2    1
     2     1    30    1
     3     1    31    1
     4     1    32    1
     5     2     3    1
     6     2     4    1
     7     2    33    1
     8     3    34    1
     9     3    35    1
    10     3    36    1
    11     4     5   am
    12     4    27    1
    13     5     6    2
    14     5     7    1
    15     7     8    1
    16     7    37    1
    17     7    38    1
    18     8    26    1
    19     8     9    1
    20     9    10    1
    21     9    39    1
    22     9    40    1
    23    10    11    1
    24    10    41    1
    25    10    42    1
    26    12    11    1
    27    11    25    1
    28    12    13    2
    29    12    14    2
    30    12    15    1
    31    15    24   ar
    32    15    16   ar
    33    16    17   ar
    34    16    43    1
    35    17    18   ar
    36    17    44    1
    37    18    19   ar
    38    18    45    1
    39    19    20    1
    40    19    24   ar
    41    20    21    1
    42    20    22    1
    43    20    23    1
    44    24    46    1
    45    25    26    1
    46    25    47    1
    47    25    48    1
    48    26    49    1
    49    26    50    1
    50    27    28    1
    51    27    29    1
    52    27    51    1
    53    28    52    1
    54    28    53    1
    55    28    54    1
    56    29    55    1
    57    29    56    1
    58    29    57    1
