@<TRIPOS>MOLECULE
ZINC000009441646
 50 52 0 0 0
SMALL
GASTEIGER

@<TRIPOS>ATOM
      1 C           0.7873   -0.4977    1.2637 C.3     1  UNL1       -0.0356
      2 C           1.9788    0.4091    0.9489 C.3     1  UNL1        0.1107
      3 H           1.6277    1.4291    0.7922 H       1  UNL1        0.0622
      4 C           2.6681   -0.0820   -0.2979 C.2     1  UNL1        0.2399
      5 O           3.8322   -0.4198   -0.2542 O.2     1  UNL1       -0.2732
      6 N           1.9912   -0.1458   -1.4616 N.am    1  UNL1       -0.2838
      7 C           2.6582   -0.4958   -2.6407 C.ar    1  UNL1        0.0336
      8 C           1.9951   -1.2115   -3.6291 C.ar    1  UNL1       -0.0386
      9 C           2.6563   -1.5555   -4.7918 C.ar    1  UNL1       -0.0336
     10 C           3.9773   -1.1884   -4.9722 C.ar    1  UNL1        0.1056
     11 S           4.8174   -1.6297   -6.4569 S.O2    1  UNL1        0.0609
     12 O           6.2042   -1.6338   -6.1471 O.2     1  UNL1       -0.1528
     13 O           4.1353   -2.7597   -6.9832 O.2     1  UNL1       -0.1528
     14 N           4.5833   -0.3970   -7.5376 N.3     1  UNL1       -0.1766
     15 C           3.4698   -0.2942   -8.4920 C.3     1  UNL1        0.0205
     16 C           3.6810    1.0007   -9.3046 C.3     1  UNL1       -0.0373
     17 C           5.2024    1.2632   -9.1508 C.3     1  UNL1       -0.0373
     18 C           5.4535    0.7822   -7.6975 C.3     1  UNL1        0.0205
     19 C           4.6402   -0.4754   -3.9902 C.ar    1  UNL1       -0.0336
     20 C           3.9829   -0.1234   -2.8276 C.ar    1  UNL1       -0.0386
     21 N           2.9213    0.3839    2.0702 N.ar    1  UNL1       -0.3030
     22 C           3.2141    1.5356    2.7268 C.ar    1  UNL1        0.0204
     23 C           4.0821    1.5375    3.7653 C.ar    1  UNL1        0.0712
     24 C           4.3960    2.8247    4.4833 C.3     1  UNL1        0.4188
     25 F           3.5709    2.9454    5.6066 F       1  UNL1       -0.1658
     26 F           5.7355    2.8187    4.8871 F       1  UNL1       -0.1658
     27 F           4.1733    3.9050    3.6227 F       1  UNL1       -0.1658
     28 C           4.6884    0.3409    4.1729 C.ar    1  UNL1       -0.0436
     29 C           4.3927   -0.8152    3.5123 C.ar    1  UNL1        0.0035
     30 C           3.4832   -0.7822    2.4414 C.ar    1  UNL1        0.2520
     31 O           3.2095   -1.8094    1.8415 O.2     1  UNL1       -0.2677
     32 H           0.0860   -0.4789    0.4295 H       1  UNL1        0.0254
     33 H           1.1384   -1.5176    1.4204 H       1  UNL1        0.0254
     34 H           0.2887   -0.1425    2.1656 H       1  UNL1        0.0254
     35 H           1.0415    0.0509   -1.4816 H       1  UNL1        0.1549
     36 H           0.9637   -1.4990   -3.4884 H       1  UNL1        0.0637
     37 H           2.1413   -2.1120   -5.5608 H       1  UNL1        0.0638
     38 H           3.4732   -1.1556   -9.1598 H       1  UNL1        0.0444
     39 H           2.5234   -0.2437   -7.9535 H       1  UNL1        0.0444
     40 H           3.4203    0.8458  -10.3516 H       1  UNL1        0.0278
     41 H           3.1031    1.8213   -8.8796 H       1  UNL1        0.0278
     42 H           5.7751    0.6726   -9.8659 H       1  UNL1        0.0278
     43 H           5.4281    2.3246   -9.2537 H       1  UNL1        0.0278
     44 H           5.1790    1.5620   -6.9871 H       1  UNL1        0.0444
     45 H           6.4980    0.4993   -7.5667 H       1  UNL1        0.0444
     46 H           5.6719   -0.1902   -4.1341 H       1  UNL1        0.0638
     47 H           4.5012    0.4335   -2.0610 H       1  UNL1        0.0637
     48 H           2.7498    2.4601    2.4169 H       1  UNL1        0.0816
     49 H           5.3823    0.3347    5.0005 H       1  UNL1        0.0625
     50 H           4.8497   -1.7468    3.8115 H       1  UNL1        0.0672
@<TRIPOS>BOND
     1     1     2    1
     2     1    32    1
     3     1    33    1
     4     1    34    1
     5     2     3    1
     6     2     4    1
     7     2    21    1
     8     4     5    2
     9     4     6   am
    10     6     7    1
    11     6    35    1
    12     7    20   ar
    13     7     8   ar
    14     8     9   ar
    15     8    36    1
    16     9    10   ar
    17     9    37    1
    18    10    11    1
    19    10    19   ar
    20    11    12    2
    21    11    13    2
    22    11    14    1
    23    14    18    1
    24    14    15    1
    25    15    16    1
    26    15    38    1
    27    15    39    1
    28    16    17    1
    29    16    40    1
    30    16    41    1
    31    17    18    1
    32    17    42    1
    33    17    43    1
    34    18    44    1
    35    18    45    1
    36    19    20   ar
    37    19    46    1
    38    20    47    1
    39    21    30   ar
    40    21    22   ar
    41    22    23   ar
    42    22    48    1
    43    23    24    1
    44    23    28   ar
    45    24    25    1
    46    24    26    1
    47    24    27    1
    48    28    29   ar
    49    28    49    1
    50    29    30   ar
    51    29    50    1
    52    30    31    2
