@<TRIPOS>MOLECULE
ZINC000095455456
 54 56 0 0 0
SMALL
GASTEIGER

@<TRIPOS>ATOM
      1 C          -0.2126    1.9917    0.4221 C.3     1  UNL1       -0.0387
      2 C          -0.2662    0.6025   -0.2166 C.3     1  UNL1        0.0569
      3 H           0.0602    0.6668   -1.2546 H       1  UNL1        0.0593
      4 C          -1.7012    0.0716   -0.1646 C.3     1  UNL1       -0.0157
      5 C          -2.1312   -0.0726    1.2985 C.3     1  UNL1        0.0404
      6 C          -3.5144   -0.6674    1.3612 C.2     1  UNL1        0.2189
      7 O          -3.9426   -1.3067    0.4237 O.2     1  UNL1       -0.2753
      8 N          -4.2756   -0.4891    2.4590 N.am    1  UNL1       -0.2987
      9 C          -3.8109    0.3656    3.5606 C.3     1  UNL1        0.0291
     10 C          -4.8739    1.4376    3.8310 C.3     1  UNL1        0.0363
     11 N          -6.1837    0.7813    3.9478 N.3     1  UNL1       -0.1736
     12 S          -7.1194    1.0013    5.2962 S.O2    1  UNL1        0.0609
     13 O          -7.9858   -0.1226    5.3712 O.2     1  UNL1       -0.1528
     14 O          -6.2331    1.3706    6.3438 O.2     1  UNL1       -0.1528
     15 C          -8.1458    2.4016    4.9960 C.ar    1  UNL1        0.1055
     16 C          -7.7066    3.6667    5.3390 C.ar    1  UNL1       -0.0348
     17 C          -8.5118    4.7654    5.1034 C.ar    1  UNL1       -0.0483
     18 C          -9.7561    4.5990    4.5246 C.ar    1  UNL1        0.0549
     19 C         -10.6341    5.7966    4.2683 C.3     1  UNL1        0.4174
     20 F         -10.3678    6.3057    2.9927 F       1  UNL1       -0.1659
     21 F         -11.9778    5.4152    4.3469 F       1  UNL1       -0.1659
     22 F         -10.3719    6.7809    5.2273 F       1  UNL1       -0.1659
     23 C         -10.1947    3.3340    4.1804 C.ar    1  UNL1       -0.0483
     24 C          -9.3879    2.2358    4.4124 C.ar    1  UNL1       -0.0348
     25 C          -6.6483   -0.0735    2.8462 C.3     1  UNL1        0.0363
     26 C          -5.5878   -1.1410    2.5734 C.3     1  UNL1        0.0291
     27 C          -1.1438   -0.9942    2.0210 C.3     1  UNL1       -0.0157
     28 C           0.2696   -0.4222    1.8845 C.3     1  UNL1        0.0569
     29 H           0.3148    0.5541    2.3670 H       1  UNL1        0.0593
     30 C           1.2696   -1.3682    2.5524 C.3     1  UNL1       -0.0387
     31 O           0.5951   -0.2849    0.4996 O.3     1  UNL1       -0.3738
     32 H           0.8092    2.3694    0.3853 H       1  UNL1        0.0255
     33 H          -0.8699    2.6683   -0.1241 H       1  UNL1        0.0255
     34 H          -0.5390    1.9272    1.4601 H       1  UNL1        0.0255
     35 H          -2.3665    0.7697   -0.6727 H       1  UNL1        0.0297
     36 H          -1.7480   -0.9005   -0.6554 H       1  UNL1        0.0297
     37 H          -2.1337    0.9072    1.7761 H       1  UNL1        0.0396
     38 H          -3.6648   -0.2387    4.4559 H       1  UNL1        0.0478
     39 H          -2.8719    0.8437    3.2816 H       1  UNL1        0.0478
     40 H          -4.6411    1.9574    4.7604 H       1  UNL1        0.0459
     41 H          -4.8938    2.1495    3.0058 H       1  UNL1        0.0459
     42 H          -6.7345    3.7967    5.7912 H       1  UNL1        0.0637
     43 H          -8.1690    5.7536    5.3720 H       1  UNL1        0.0624
     44 H         -11.1666    3.2041    3.7278 H       1  UNL1        0.0624
     45 H          -9.7306    1.2476    4.1435 H       1  UNL1        0.0637
     46 H          -7.5873   -0.5516    3.1252 H       1  UNL1        0.0459
     47 H          -6.7945    0.5309    1.9510 H       1  UNL1        0.0459
     48 H          -5.8218   -1.6600    1.6439 H       1  UNL1        0.0478
     49 H          -5.5656   -1.8538    3.3977 H       1  UNL1        0.0478
     50 H          -1.4105   -1.0584    3.0759 H       1  UNL1        0.0297
     51 H          -1.1794   -1.9879    1.5743 H       1  UNL1        0.0297
     52 H           1.2246   -2.3443    2.0695 H       1  UNL1        0.0255
     53 H           2.2759   -0.9608    2.4552 H       1  UNL1        0.0255
     54 H           1.0207   -1.4734    3.6084 H       1  UNL1        0.0255
@<TRIPOS>BOND
     1     1     2    1
     2     1    32    1
     3     1    33    1
     4     1    34    1
     5     2     3    1
     6     2    31    1
     7     2     4    1
     8     4     5    1
     9     4    35    1
    10     4    36    1
    11     5     6    1
    12     5    27    1
    13     5    37    1
    14     6     7    2
    15     6     8   am
    16     8    26    1
    17     8     9    1
    18     9    10    1
    19     9    38    1
    20     9    39    1
    21    10    11    1
    22    10    40    1
    23    10    41    1
    24    12    11    1
    25    11    25    1
    26    12    13    2
    27    12    14    2
    28    12    15    1
    29    15    24   ar
    30    15    16   ar
    31    16    17   ar
    32    16    42    1
    33    17    18   ar
    34    17    43    1
    35    18    19    1
    36    18    23   ar
    37    19    20    1
    38    19    21    1
    39    19    22    1
    40    23    24   ar
    41    23    44    1
    42    24    45    1
    43    25    26    1
    44    25    46    1
    45    25    47    1
    46    26    48    1
    47    26    49    1
    48    27    28    1
    49    27    50    1
    50    27    51    1
    51    28    29    1
    52    28    30    1
    53    28    31    1
    54    30    52    1
    55    30    53    1
    56    30    54    1
