@<TRIPOS>MOLECULE
ZINC000096122006
 47 48 0 0 0
SMALL
GASTEIGER

@<TRIPOS>ATOM
      1 C          -0.0187    1.5258    0.0104 C.3     1  UNL1       -0.0612
      2 C           0.0021   -0.0041    0.0020 C.3     1  UNL1       -0.0273
      3 C           0.7421   -0.5109    1.2415 C.3     1  UNL1       -0.0612
      4 C          -1.4333   -0.5336    0.0129 C.3     1  UNL1        0.0685
      5 S          -2.2655   -0.0565   -1.5267 S.O2    1  UNL1       -0.0250
      6 O          -2.3878    1.3589   -1.5554 O.2     1  UNL1       -0.1740
      7 O          -1.6287   -0.7200   -2.6100 O.2     1  UNL1       -0.1740
      8 C          -3.9157   -0.7746   -1.2988 C.3     1  UNL1        0.1081
      9 C          -4.8675    0.1092   -0.4725 C.3     1  UNL1        0.0384
     10 N          -5.9016   -0.2548   -1.4605 N.am    1  UNL1       -0.2977
     11 C          -7.2477   -0.3169   -1.4395 C.2     1  UNL1        0.2160
     12 O          -7.8524   -0.0293   -0.4282 O.2     1  UNL1       -0.2756
     13 C          -8.0017   -0.7438   -2.6726 C.3     1  UNL1        0.0281
     14 C          -9.5038   -0.7291   -2.3825 C.3     1  UNL1       -0.0194
     15 C         -10.2577   -1.1560   -3.6156 C.ar    1  UNL1       -0.0469
     16 C         -10.6568   -0.2119   -4.5431 C.ar    1  UNL1       -0.0580
     17 C         -11.3484   -0.6034   -5.6742 C.ar    1  UNL1       -0.0499
     18 C         -11.6404   -1.9391   -5.8780 C.ar    1  UNL1        0.0548
     19 C         -12.3948   -2.3658   -7.1108 C.3     1  UNL1        0.4174
     20 F         -11.4879   -2.6488   -8.1378 F       1  UNL1       -0.1659
     21 F         -13.1469   -3.5102   -6.8245 F       1  UNL1       -0.1659
     22 F         -13.2498   -1.3348   -7.5146 F       1  UNL1       -0.1659
     23 C         -11.2402   -2.8833   -4.9511 C.ar    1  UNL1       -0.0499
     24 C         -10.5453   -2.4922   -3.8219 C.ar    1  UNL1       -0.0580
     25 C          -4.8696   -0.5234   -2.4807 C.3     1  UNL1        0.0384
     26 H           1.0039    1.9031    0.0027 H       1  UNL1        0.0233
     27 H          -0.5459    1.8868   -0.8726 H       1  UNL1        0.0233
     28 H          -0.5289    1.8773    0.9072 H       1  UNL1        0.0233
     29 H           0.5123   -0.3556   -0.8948 H       1  UNL1        0.0311
     30 H           0.2319   -0.1594    2.1383 H       1  UNL1        0.0233
     31 H           0.7568   -1.6008    1.2356 H       1  UNL1        0.0233
     32 H           1.7647   -0.1336    1.2338 H       1  UNL1        0.0233
     33 H          -1.4190   -1.6203    0.0965 H       1  UNL1        0.0502
     34 H          -1.9701   -0.1109    0.8621 H       1  UNL1        0.0502
     35 H          -3.8853   -1.8142   -0.9727 H       1  UNL1        0.0567
     36 H          -5.0632   -0.2730    0.5294 H       1  UNL1        0.0484
     37 H          -4.6040    1.1668   -0.4816 H       1  UNL1        0.0484
     38 H          -7.7825   -0.0555   -3.4889 H       1  UNL1        0.0362
     39 H          -7.6959   -1.7512   -2.9548 H       1  UNL1        0.0362
     40 H          -9.7230   -1.4174   -1.5662 H       1  UNL1        0.0318
     41 H          -9.8096    0.2783   -2.1002 H       1  UNL1        0.0318
     42 H         -10.4286    0.8317   -4.3839 H       1  UNL1        0.0620
     43 H         -11.6608    0.1343   -6.3985 H       1  UNL1        0.0623
     44 H         -11.4680   -3.9269   -5.1105 H       1  UNL1        0.0623
     45 H         -10.2325   -3.2300   -3.0978 H       1  UNL1        0.0620
     46 H          -4.6067    0.3484   -3.0798 H       1  UNL1        0.0484
     47 H          -5.0669   -1.4107   -3.0822 H       1  UNL1        0.0484
@<TRIPOS>BOND
     1     1     2    1
     2     1    26    1
     3     1    27    1
     4     1    28    1
     5     2     3    1
     6     2     4    1
     7     2    29    1
     8     3    30    1
     9     3    31    1
    10     3    32    1
    11     4     5    1
    12     4    33    1
    13     4    34    1
    14     5     6    2
    15     5     7    2
    16     5     8    1
    17     8    25    1
    18     8     9    1
    19     8    35    1
    20     9    10    1
    21     9    36    1
    22     9    37    1
    23    10    11   am
    24    10    25    1
    25    11    12    2
    26    11    13    1
    27    13    14    1
    28    13    38    1
    29    13    39    1
    30    14    15    1
    31    14    40    1
    32    14    41    1
    33    15    24   ar
    34    15    16   ar
    35    16    17   ar
    36    16    42    1
    37    17    18   ar
    38    17    43    1
    39    18    19    1
    40    18    23   ar
    41    19    20    1
    42    19    21    1
    43    19    22    1
    44    23    24   ar
    45    23    44    1
    46    24    45    1
    47    25    46    1
    48    25    47    1
