@<TRIPOS>MOLECULE
ZINC000009478177
 52 54 0 0 0
SMALL
GASTEIGER

@<TRIPOS>ATOM
      1 C          -0.0187    1.5258    0.0104 C.3     1  UNL1       -0.0234
      2 C           0.0021   -0.0041    0.0020 C.3     1  UNL1        0.1252
      3 H           0.5293   -0.3651    0.8851 H       1  UNL1        0.0782
      4 O           0.6817   -0.4723   -1.1926 O.3     1  UNL1       -0.4567
      5 C           2.0083   -0.6580   -1.1058 C.2     1  UNL1        0.3108
      6 O           2.5825   -0.4365   -0.0661 O.2     1  UNL1       -0.2505
      7 C           2.7813   -1.1426   -2.3052 C.3     1  UNL1        0.0589
      8 C           2.6207   -0.1433   -3.4532 C.3     1  UNL1       -0.0256
      9 C           3.3792   -0.6562   -4.6813 C.3     1  UNL1        0.0213
     10 N           4.7738   -0.9185   -4.3003 N.3     1  UNL1       -0.1765
     11 S           6.0225   -0.2389   -5.1495 S.O2    1  UNL1        0.0609
     12 O           7.1551   -1.0688   -4.9308 O.2     1  UNL1       -0.1528
     13 O           5.5140    0.0570   -6.4429 O.2     1  UNL1       -0.1528
     14 C           6.3867    1.3096   -4.3918 C.ar    1  UNL1        0.1060
     15 C           5.7395    2.4552   -4.8150 C.ar    1  UNL1       -0.0353
     16 C           6.0253    3.6703   -4.2205 C.ar    1  UNL1       -0.0594
     17 C           6.9578    3.7393   -3.2026 C.ar    1  UNL1       -0.0500
     18 C           7.6045    2.5932   -2.7787 C.ar    1  UNL1        0.0567
     19 C           8.6216    2.6686   -1.6693 C.3     1  UNL1        0.4175
     20 F           8.7379    3.9925   -1.2323 F       1  UNL1       -0.1659
     21 F           8.2104    1.8603   -0.6040 F       1  UNL1       -0.1659
     22 F           9.8608    2.2228   -2.1416 F       1  UNL1       -0.1659
     23 C           7.3157    1.3779   -3.3701 C.ar    1  UNL1       -0.0237
     24 C           5.0394   -1.7948   -3.1512 C.3     1  UNL1        0.0213
     25 C           4.2622   -1.2691   -1.9402 C.3     1  UNL1       -0.0256
     26 C          -1.4117   -0.5257    0.0127 C.ar    1  UNL1       -0.0074
     27 C          -2.1052   -0.6658   -1.1750 C.ar    1  UNL1       -0.0524
     28 C          -3.4018   -1.1441   -1.1664 C.ar    1  UNL1       -0.0261
     29 C          -4.0060   -1.4833    0.0323 C.ar    1  UNL1        0.1234
     30 F          -5.2733   -1.9514    0.0418 F       1  UNL1       -0.2055
     31 C          -3.3103   -1.3430    1.2212 C.ar    1  UNL1       -0.0261
     32 C          -2.0122   -0.8691    1.2097 C.ar    1  UNL1       -0.0524
     33 H           1.0039    1.9031    0.0027 H       1  UNL1        0.0269
     34 H          -0.5459    1.8868   -0.8726 H       1  UNL1        0.0269
     35 H          -0.5289    1.8773    0.9072 H       1  UNL1        0.0269
     36 H           2.3992   -2.1154   -2.6147 H       1  UNL1        0.0414
     37 H           1.5637   -0.0361   -3.6970 H       1  UNL1        0.0286
     38 H           3.0252    0.8234   -3.1533 H       1  UNL1        0.0286
     39 H           2.9182   -1.5776   -5.0370 H       1  UNL1        0.0444
     40 H           3.3510    0.0967   -5.4689 H       1  UNL1        0.0444
     41 H           5.0109    2.4013   -5.6103 H       1  UNL1        0.0637
     42 H           5.5201    4.5656   -4.5516 H       1  UNL1        0.0618
     43 H           7.1816    4.6886   -2.7387 H       1  UNL1        0.0623
     44 H           7.8209    0.4826   -3.0390 H       1  UNL1        0.0642
     45 H           4.7137   -2.8090   -3.3822 H       1  UNL1        0.0444
     46 H           6.1065   -1.7931   -2.9293 H       1  UNL1        0.0444
     47 H           4.6512   -0.2918   -1.6546 H       1  UNL1        0.0286
     48 H           4.3736   -1.9632   -1.1072 H       1  UNL1        0.0286
     49 H          -1.6337   -0.4011   -2.1098 H       1  UNL1        0.0622
     50 H          -3.9436   -1.2528   -2.0943 H       1  UNL1        0.0646
     51 H          -3.7808   -1.6070    2.1568 H       1  UNL1        0.0646
     52 H          -1.4692   -0.7599    2.1368 H       1  UNL1        0.0622
@<TRIPOS>BOND
     1     1     2    1
     2     1    33    1
     3     1    34    1
     4     1    35    1
     5     2     3    1
     6     2     4    1
     7     2    26    1
     8     4     5    1
     9     5     6    2
    10     5     7    1
    11     7    25    1
    12     7     8    1
    13     7    36    1
    14     8     9    1
    15     8    37    1
    16     8    38    1
    17     9    10    1
    18     9    39    1
    19     9    40    1
    20    11    10    1
    21    10    24    1
    22    11    12    2
    23    11    13    2
    24    11    14    1
    25    14    23   ar
    26    14    15   ar
    27    15    16   ar
    28    15    41    1
    29    16    17   ar
    30    16    42    1
    31    17    18   ar
    32    17    43    1
    33    18    19    1
    34    18    23   ar
    35    19    20    1
    36    19    21    1
    37    19    22    1
    38    23    44    1
    39    24    25    1
    40    24    45    1
    41    24    46    1
    42    25    47    1
    43    25    48    1
    44    26    32   ar
    45    26    27   ar
    46    27    28   ar
    47    27    49    1
    48    28    29   ar
    49    28    50    1
    50    29    30    1
    51    29    31   ar
    52    31    32   ar
    53    31    51    1
    54    32    52    1
