@<TRIPOS>MOLECULE
ZINC000154173577
 38 40 0 0 0
SMALL
GASTEIGER

@<TRIPOS>ATOM
      1 O          -0.8996    4.0825    2.4658 O.2     1  UNL1       -0.2737
      2 C          -1.1621    3.5423    1.4122 C.2     1  UNL1        0.2364
      3 N          -0.9108    4.2007    0.2797 N.am    1  UNL1       -0.3124
      4 C          -1.2551    3.7186   -1.0508 C.3     1  UNL1        0.0261
      5 C          -1.4283    2.1985   -1.0491 C.3     1  UNL1        0.0369
      6 N          -2.2684    1.8329    0.1038 N.3     1  UNL1       -0.1631
      7 S          -3.7312    1.0836   -0.0990 S.O2    1  UNL1        0.0357
      8 O          -4.5172    1.5488    0.9895 O.2     1  UNL1       -0.1577
      9 O          -4.0922    1.3774   -1.4416 O.2     1  UNL1       -0.1577
     10 C          -3.3648   -0.6830    0.0896 C.3     1  UNL1        0.0931
     11 C          -3.9162   -1.3905    1.3291 C.3     1  UNL1       -0.0274
     12 C          -4.5306   -1.6646   -0.0451 C.3     1  UNL1       -0.0274
     13 C          -1.7504    2.1581    1.4425 C.3     1  UNL1        0.1323
     14 H          -0.9846    1.4350    1.7231 H       1  UNL1        0.0626
     15 C          -2.8761    2.1151    2.4435 C.ar    1  UNL1       -0.0199
     16 C          -3.5611    3.2724    2.7633 C.ar    1  UNL1       -0.0560
     17 C          -4.5937    3.2331    3.6815 C.ar    1  UNL1       -0.0498
     18 C          -4.9416    2.0363    4.2795 C.ar    1  UNL1        0.0548
     19 C          -6.0669    1.9935    5.2809 C.3     1  UNL1        0.4174
     20 F          -7.2726    1.7429    4.6170 F       1  UNL1       -0.1659
     21 F          -5.8259    0.9758    6.2101 F       1  UNL1       -0.1659
     22 F          -6.1470    3.2221    5.9452 F       1  UNL1       -0.1659
     23 C          -4.2574    0.8788    3.9587 C.ar    1  UNL1       -0.0498
     24 C          -3.2273    0.9175    3.0376 C.ar    1  UNL1       -0.0560
     25 H          -0.4681    5.0612    0.3471 H       1  UNL1        0.1488
     26 H          -2.1863    4.1855   -1.3718 H       1  UNL1        0.0475
     27 H          -0.4608    3.9884   -1.7468 H       1  UNL1        0.0475
     28 H          -1.9136    1.8827   -1.9726 H       1  UNL1        0.0459
     29 H          -0.4542    1.7174   -0.9617 H       1  UNL1        0.0459
     30 H          -2.3915   -1.0036   -0.2821 H       1  UNL1        0.0552
     31 H          -3.3056   -2.1766    1.7732 H       1  UNL1        0.0285
     32 H          -4.4991   -0.7944    2.0312 H       1  UNL1        0.0285
     33 H          -5.5178   -1.2489   -0.2469 H       1  UNL1        0.0285
     34 H          -4.3243   -2.6311   -0.5049 H       1  UNL1        0.0285
     35 H          -3.2893    4.2074    2.2960 H       1  UNL1        0.0621
     36 H          -5.1284    4.1374    3.9318 H       1  UNL1        0.0623
     37 H          -4.5294   -0.0563    4.4257 H       1  UNL1        0.0623
     38 H          -2.6928    0.0131    2.7870 H       1  UNL1        0.0621
@<TRIPOS>BOND
     1     1     2    2
     2     2    13    1
     3     2     3   am
     4     3     4    1
     5     3    25    1
     6     4     5    1
     7     4    26    1
     8     4    27    1
     9     5     6    1
    10     5    28    1
    11     5    29    1
    12     7     6    1
    13     6    13    1
    14     7     8    2
    15     7     9    2
    16     7    10    1
    17    10    12    1
    18    10    11    1
    19    10    30    1
    20    11    12    1
    21    11    31    1
    22    11    32    1
    23    12    33    1
    24    12    34    1
    25    13    14    1
    26    13    15    1
    27    15    24   ar
    28    15    16   ar
    29    16    17   ar
    30    16    35    1
    31    17    18   ar
    32    17    36    1
    33    18    19    1
    34    18    23   ar
    35    19    20    1
    36    19    21    1
    37    19    22    1
    38    23    24   ar
    39    23    37    1
    40    24    38    1
