@<TRIPOS>MOLECULE
ZINC000041129619
 36 37 0 0 0
SMALL
GASTEIGER

@<TRIPOS>ATOM
      1 N          -0.0162    1.3436    0.0094 N.am    1  UNL1       -0.3291
      2 C           0.0021   -0.0041    0.0020 C.2     1  UNL1        0.2151
      3 O           1.0605   -0.5961   -0.0113 O.2     1  UNL1       -0.2757
      4 C          -1.2926   -0.7753    0.0102 C.3     1  UNL1        0.0525
      5 H          -1.8808   -0.5292    0.8943 H       1  UNL1        0.0410
      6 C          -2.1040   -0.4995   -1.2832 C.3     1  UNL1       -0.0246
      7 C          -2.9444   -1.7952   -1.4053 C.3     1  UNL1        0.0154
      8 N          -2.0453   -2.8722   -0.9524 N.am    1  UNL1       -0.3005
      9 C          -2.1426   -4.1723   -1.2942 C.2     1  UNL1        0.2199
     10 O          -1.3435   -4.9748   -0.8602 O.2     1  UNL1       -0.2752
     11 C          -3.2443   -4.6288   -2.2156 C.3     1  UNL1        0.0493
     12 C          -3.1302   -6.1150   -2.4372 C.ar    1  UNL1       -0.0386
     13 C          -2.3642   -6.6015   -3.4800 C.ar    1  UNL1       -0.0576
     14 C          -2.2596   -7.9648   -3.6834 C.ar    1  UNL1       -0.0499
     15 C          -2.9206   -8.8416   -2.8436 C.ar    1  UNL1        0.0548
     16 C          -2.8069  -10.3278   -3.0655 C.3     1  UNL1        0.4174
     17 F          -1.7169  -10.8252   -2.3432 F       1  UNL1       -0.1659
     18 F          -3.9795  -10.9552   -2.6313 F       1  UNL1       -0.1659
     19 F          -2.6187  -10.5828   -4.4282 F       1  UNL1       -0.1659
     20 C          -3.6854   -8.3551   -1.7999 C.ar    1  UNL1       -0.0499
     21 C          -3.7870   -6.9919   -1.5943 C.ar    1  UNL1       -0.0576
     22 C          -1.0244   -2.2933   -0.0620 C.3     1  UNL1        0.0258
     23 H           0.8172    1.8399    0.0041 H       1  UNL1        0.1449
     24 H          -0.8627    1.8171    0.0160 H       1  UNL1        0.1449
     25 H          -2.7463    0.3729   -1.1630 H       1  UNL1        0.0288
     26 H          -1.4426   -0.3805   -2.1414 H       1  UNL1        0.0288
     27 H          -3.8231   -1.7393   -0.7628 H       1  UNL1        0.0465
     28 H          -3.2407   -1.9589   -2.4413 H       1  UNL1        0.0465
     29 H          -4.2111   -4.4015   -1.7664 H       1  UNL1        0.0407
     30 H          -3.1568   -4.1112   -3.1708 H       1  UNL1        0.0407
     31 H          -1.8478   -5.9165   -4.1362 H       1  UNL1        0.0621
     32 H          -1.6617   -8.3449   -4.4985 H       1  UNL1        0.0623
     33 H          -4.2015   -9.0402   -1.1436 H       1  UNL1        0.0623
     34 H          -4.3845   -6.6119   -0.7789 H       1  UNL1        0.0621
     35 H          -0.0304   -2.4727   -0.4717 H       1  UNL1        0.0472
     36 H          -1.1040   -2.7364    0.9307 H       1  UNL1        0.0472
@<TRIPOS>BOND
     1     1     2   am
     2     1    23    1
     3     1    24    1
     4     2     3    2
     5     2     4    1
     6     4     5    1
     7     4    22    1
     8     4     6    1
     9     6     7    1
    10     6    25    1
    11     6    26    1
    12     7     8    1
    13     7    27    1
    14     7    28    1
    15     8     9   am
    16     8    22    1
    17     9    10    2
    18     9    11    1
    19    11    12    1
    20    11    29    1
    21    11    30    1
    22    12    21   ar
    23    12    13   ar
    24    13    14   ar
    25    13    31    1
    26    14    15   ar
    27    14    32    1
    28    15    16    1
    29    15    20   ar
    30    16    17    1
    31    16    18    1
    32    16    19    1
    33    20    21   ar
    34    20    33    1
    35    21    34    1
    36    22    35    1
    37    22    36    1
