@<TRIPOS>MOLECULE
ZINC000012612554
 37 38 0 0 0
SMALL
GASTEIGER

@<TRIPOS>ATOM
      1 C          -0.0187    1.5258    0.0104 C.3     1  UNL1       -0.0374
      2 C           0.0021   -0.0041    0.0020 C.3     1  UNL1        0.0706
      3 H           0.5121   -0.3563   -0.8946 H       1  UNL1        0.0606
      4 C          -1.4357   -0.5357    0.0154 C.3     1  UNL1        0.0466
      5 N          -1.3891   -1.9954    0.1960 N.3     1  UNL1       -0.1717
      6 S          -2.2247   -3.0065   -0.8147 S.O2    1  UNL1        0.0610
      7 O          -2.4345   -4.2122   -0.0926 O.2     1  UNL1       -0.1528
      8 O          -3.2841   -2.2366   -1.3664 O.2     1  UNL1       -0.1528
      9 C          -1.1523   -3.4086   -2.1537 C.ar    1  UNL1        0.1055
     10 C          -1.1345   -2.6168   -3.2867 C.ar    1  UNL1       -0.0348
     11 C          -0.2931   -2.9322   -4.3372 C.ar    1  UNL1       -0.0483
     12 C           0.5307   -4.0392   -4.2545 C.ar    1  UNL1        0.0549
     13 C           1.4476   -4.3833   -5.3999 C.3     1  UNL1        0.4174
     14 F           2.6791   -3.7445   -5.2196 F       1  UNL1       -0.1659
     15 F           1.6423   -5.7681   -5.4415 F       1  UNL1       -0.1659
     16 F           0.8726   -3.9569   -6.6019 F       1  UNL1       -0.1659
     17 C           0.5139   -4.8301   -3.1209 C.ar    1  UNL1       -0.0483
     18 C          -0.3247   -4.5125   -2.0689 C.ar    1  UNL1       -0.0348
     19 C          -0.5783   -2.5300    1.3016 C.3     1  UNL1        0.0466
     20 C           0.8176   -1.9012    1.2255 C.3     1  UNL1        0.0706
     21 H           1.3309   -2.2611    0.3338 H       1  UNL1        0.0606
     22 C           1.6209   -2.2882    2.4688 C.3     1  UNL1       -0.0374
     23 O           0.6913   -0.4787    1.1611 O.3     1  UNL1       -0.3713
     24 H           1.0039    1.9031    0.0027 H       1  UNL1        0.0255
     25 H          -0.5459    1.8868   -0.8726 H       1  UNL1        0.0255
     26 H          -0.5289    1.8773    0.9072 H       1  UNL1        0.0255
     27 H          -1.9874   -0.0814    0.8384 H       1  UNL1        0.0469
     28 H          -1.9238   -0.2981   -0.9298 H       1  UNL1        0.0469
     29 H          -1.7782   -1.7520   -3.3514 H       1  UNL1        0.0637
     30 H          -0.2797   -2.3141   -5.2227 H       1  UNL1        0.0624
     31 H           1.1579   -5.6947   -3.0561 H       1  UNL1        0.0624
     32 H          -0.3378   -5.1305   -1.1832 H       1  UNL1        0.0637
     33 H          -1.0437   -2.2765    2.2541 H       1  UNL1        0.0469
     34 H          -0.4987   -3.6131    1.2081 H       1  UNL1        0.0469
     35 H           1.7137   -3.3731    2.5183 H       1  UNL1        0.0255
     36 H           2.6133   -1.8407    2.4140 H       1  UNL1        0.0255
     37 H           1.1079   -1.9264    3.3599 H       1  UNL1        0.0255
@<TRIPOS>BOND
     1     1     2    1
     2     1    24    1
     3     1    25    1
     4     1    26    1
     5     2     3    1
     6     2    23    1
     7     2     4    1
     8     4     5    1
     9     4    27    1
    10     4    28    1
    11     6     5    1
    12     5    19    1
    13     6     7    2
    14     6     8    2
    15     6     9    1
    16     9    18   ar
    17     9    10   ar
    18    10    11   ar
    19    10    29    1
    20    11    12   ar
    21    11    30    1
    22    12    13    1
    23    12    17   ar
    24    13    14    1
    25    13    15    1
    26    13    16    1
    27    17    18   ar
    28    17    31    1
    29    18    32    1
    30    19    20    1
    31    19    33    1
    32    19    34    1
    33    20    21    1
    34    20    22    1
    35    20    23    1
    36    22    35    1
    37    22    36    1
    38    22    37    1
