@<TRIPOS>MOLECULE
ZINC000007881121
 47 49 0 0 0
SMALL
GASTEIGER

@<TRIPOS>ATOM
      1 C           0.0164    1.3408   -0.0249 C.3     1  UNL1       -0.0379
      2 C          -0.2109   -0.1463    0.0633 C.ar    1  UNL1       -0.0241
      3 C          -0.4706   -0.8725   -1.0852 C.ar    1  UNL1       -0.0563
      4 C          -0.6797   -2.2344   -1.0114 C.ar    1  UNL1       -0.0493
      5 C          -0.6286   -2.8791    0.2254 C.ar    1  UNL1        0.0389
      6 C          -0.8511   -4.3378    0.3119 C.2     1  UNL1        0.2483
      7 O          -0.8060   -4.8967    1.3905 O.2     1  UNL1       -0.2699
      8 N          -1.1039   -5.0483   -0.8052 N.am    1  UNL1       -0.2815
      9 C          -1.4130   -6.4091   -0.7133 C.ar    1  UNL1        0.0337
     10 C          -0.9919   -7.2868   -1.7040 C.ar    1  UNL1       -0.0399
     11 C          -1.2989   -8.6301   -1.6103 C.ar    1  UNL1       -0.0484
     12 C          -2.0250   -9.1014   -0.5320 C.ar    1  UNL1        0.0549
     13 C          -2.3581  -10.5678   -0.4330 C.3     1  UNL1        0.4174
     14 F          -1.3404  -11.2315    0.2605 F       1  UNL1       -0.1659
     15 F          -3.5683  -10.7260    0.2507 F       1  UNL1       -0.1659
     16 F          -2.4748  -11.1073   -1.7186 F       1  UNL1       -0.1659
     17 C          -2.4457   -8.2302    0.4561 C.ar    1  UNL1       -0.0484
     18 C          -2.1368   -6.8867    0.3716 C.ar    1  UNL1       -0.0399
     19 C          -0.3660   -2.1402    1.3805 C.ar    1  UNL1       -0.0230
     20 C          -0.1533   -0.7803    1.2920 C.ar    1  UNL1        0.1091
     21 S           0.1788    0.1541    2.7485 S.O2    1  UNL1        0.0611
     22 O          -0.6734    1.2902    2.6995 O.2     1  UNL1       -0.1528
     23 O           0.1795   -0.7709    3.8272 O.2     1  UNL1       -0.1528
     24 N           1.7278    0.7257    2.6216 N.3     1  UNL1       -0.1766
     25 C           2.9471   -0.0195    2.9676 C.3     1  UNL1        0.0205
     26 C           4.1454    0.9189    2.7124 C.3     1  UNL1       -0.0373
     27 C           3.5019    2.3293    2.7750 C.3     1  UNL1       -0.0373
     28 C           2.1130    2.0637    2.1370 C.3     1  UNL1        0.0205
     29 H           1.0862    1.5422   -0.0798 H       1  UNL1        0.0278
     30 H          -0.4730    1.7309   -0.9173 H       1  UNL1        0.0278
     31 H          -0.3996    1.8250    0.8586 H       1  UNL1        0.0278
     32 H          -0.5102   -0.3724   -2.0415 H       1  UNL1        0.0621
     33 H          -0.8827   -2.8001   -1.9087 H       1  UNL1        0.0625
     34 H          -1.0715   -4.6158   -1.6728 H       1  UNL1        0.1551
     35 H          -0.4254   -6.9193   -2.5468 H       1  UNL1        0.0636
     36 H          -0.9717   -9.3131   -2.3803 H       1  UNL1        0.0624
     37 H          -3.0130   -8.6014    1.2968 H       1  UNL1        0.0624
     38 H          -2.4654   -6.2069    1.1437 H       1  UNL1        0.0636
     39 H          -0.3252   -2.6331    2.3406 H       1  UNL1        0.0645
     40 H           2.9196   -0.3082    4.0183 H       1  UNL1        0.0444
     41 H           3.0304   -0.9063    2.3394 H       1  UNL1        0.0444
     42 H           4.8984    0.8036    3.4921 H       1  UNL1        0.0278
     43 H           4.5765    0.7350    1.7283 H       1  UNL1        0.0278
     44 H           3.4035    2.6684    3.8062 H       1  UNL1        0.0278
     45 H           4.0715    3.0453    2.1826 H       1  UNL1        0.0278
     46 H           2.1871    2.0722    1.0496 H       1  UNL1        0.0444
     47 H           1.3918    2.8079    2.4748 H       1  UNL1        0.0444
@<TRIPOS>BOND
     1     1     2    1
     2     1    29    1
     3     1    30    1
     4     1    31    1
     5     2    20   ar
     6     2     3   ar
     7     3     4   ar
     8     3    32    1
     9     4     5   ar
    10     4    33    1
    11     5     6    1
    12     5    19   ar
    13     6     7    2
    14     6     8   am
    15     8     9    1
    16     8    34    1
    17     9    18   ar
    18     9    10   ar
    19    10    11   ar
    20    10    35    1
    21    11    12   ar
    22    11    36    1
    23    12    13    1
    24    12    17   ar
    25    13    14    1
    26    13    15    1
    27    13    16    1
    28    17    18   ar
    29    17    37    1
    30    18    38    1
    31    19    20   ar
    32    19    39    1
    33    20    21    1
    34    21    22    2
    35    21    23    2
    36    21    24    1
    37    24    28    1
    38    24    25    1
    39    25    26    1
    40    25    40    1
    41    25    41    1
    42    26    27    1
    43    26    42    1
    44    26    43    1
    45    27    28    1
    46    27    44    1
    47    27    45    1
    48    28    46    1
    49    28    47    1
