@<TRIPOS>MOLECULE
ZINC000075144295
 44 45 0 0 0
SMALL
GASTEIGER

@<TRIPOS>ATOM
      1 C           0.1603    2.4216   -1.5541 C.3     1  UNL1        0.0086
      2 N           0.5678    1.0211   -1.4177 N.3     1  UNL1       -0.1827
      3 C           1.8793    0.5888   -1.9071 C.3     1  UNL1        0.0086
      4 S          -0.4539   -0.0734   -0.7103 S.O2    1  UNL1        0.0604
      5 O           0.3632   -1.1305   -0.2263 O.2     1  UNL1       -0.1529
      6 O          -1.3300    0.6749    0.1214 O.2     1  UNL1       -0.1529
      7 C          -1.4498   -0.7607   -1.9911 C.ar    1  UNL1        0.1074
      8 C          -2.6486   -0.1614   -2.3298 C.ar    1  UNL1       -0.0325
      9 C          -3.4338   -0.6971   -3.3345 C.ar    1  UNL1       -0.0228
     10 C          -3.0214   -1.8350   -4.0030 C.ar    1  UNL1        0.1446
     11 F          -3.7882   -2.3586   -4.9844 F       1  UNL1       -0.2035
     12 C          -1.8156   -2.4396   -3.6637 C.ar    1  UNL1        0.0709
     13 N          -1.3941   -3.5923   -4.3381 N.am    1  UNL1       -0.2831
     14 C          -0.5426   -4.4493   -3.7406 C.2     1  UNL1        0.2173
     15 O          -0.2198   -4.2762   -2.5843 O.2     1  UNL1       -0.2755
     16 C           0.0085   -5.6225   -4.5092 C.3     1  UNL1        0.0266
     17 C           0.9428   -6.4303   -3.6062 C.3     1  UNL1       -0.0183
     18 C           1.5024   -7.6215   -4.3865 C.3     1  UNL1        0.0592
     19 H           1.9730   -7.2813   -5.3089 H       1  UNL1        0.0596
     20 C           2.5216   -8.4019   -3.5188 C.3     1  UNL1       -0.0245
     21 C           2.4489   -9.8089   -4.1724 C.3     1  UNL1       -0.0271
     22 C           0.9654   -9.8998   -4.5900 C.3     1  UNL1        0.0481
     23 O           0.4567   -8.5622   -4.6778 O.3     1  UNL1       -0.3765
     24 C          -1.0285   -1.8947   -2.6590 C.ar    1  UNL1       -0.0113
     25 H           0.9565    2.9860   -2.0396 H       1  UNL1        0.0408
     26 H          -0.7458    2.4793   -2.1572 H       1  UNL1        0.0408
     27 H          -0.0329    2.8416   -0.5670 H       1  UNL1        0.0408
     28 H           2.6161    0.6907   -1.1104 H       1  UNL1        0.0408
     29 H           1.8246   -0.4539   -2.2202 H       1  UNL1        0.0408
     30 H           2.1728    1.2078   -2.7549 H       1  UNL1        0.0408
     31 H          -2.9729    0.7271   -1.8085 H       1  UNL1        0.0638
     32 H          -4.3698   -0.2265   -3.5968 H       1  UNL1        0.0647
     33 H          -1.7151   -3.7739   -5.2353 H       1  UNL1        0.1549
     34 H          -0.8129   -6.2569   -4.8423 H       1  UNL1        0.0359
     35 H           0.5630   -5.2614   -5.3754 H       1  UNL1        0.0359
     36 H           1.7643   -5.7960   -3.2731 H       1  UNL1        0.0295
     37 H           0.3884   -6.7915   -2.7400 H       1  UNL1        0.0295
     38 H           3.5215   -7.9775   -3.6100 H       1  UNL1        0.0291
     39 H           2.2051   -8.4362   -2.4763 H       1  UNL1        0.0291
     40 H           3.1014   -9.8660   -5.0436 H       1  UNL1        0.0288
     41 H           2.6966  -10.5858   -3.4492 H       1  UNL1        0.0288
     42 H           0.8838  -10.3894   -5.5604 H       1  UNL1        0.0560
     43 H           0.4047  -10.4615   -3.8428 H       1  UNL1        0.0560
     44 H          -0.0917   -2.3617   -2.3932 H       1  UNL1        0.0656
@<TRIPOS>BOND
     1     1     2    1
     2     1    25    1
     3     1    26    1
     4     1    27    1
     5     2     3    1
     6     4     2    1
     7     3    28    1
     8     3    29    1
     9     3    30    1
    10     4     5    2
    11     4     6    2
    12     4     7    1
    13     7    24   ar
    14     7     8   ar
    15     8     9   ar
    16     8    31    1
    17     9    10   ar
    18     9    32    1
    19    10    11    1
    20    10    12   ar
    21    12    13    1
    22    12    24   ar
    23    13    14   am
    24    13    33    1
    25    14    15    2
    26    14    16    1
    27    16    17    1
    28    16    34    1
    29    16    35    1
    30    17    18    1
    31    17    36    1
    32    17    37    1
    33    18    19    1
    34    18    23    1
    35    18    20    1
    36    20    21    1
    37    20    38    1
    38    20    39    1
    39    21    22    1
    40    21    40    1
    41    21    41    1
    42    22    23    1
    43    22    42    1
    44    22    43    1
    45    24    44    1
