@<TRIPOS>MOLECULE
ZINC000013267704
 35 36 0 0 0
SMALL
GASTEIGER

@<TRIPOS>ATOM
      1 O           0.0021   -0.0041    0.0020 O.co2   1  UNL1       -0.2460
      2 C          -0.0145    1.2150    0.0087 C.2     1  UNL1        0.3603
      3 O           1.0330    1.8389    0.0021 O.co2   1  UNL1       -0.2460
      4 C          -1.3296    1.9507    0.0190 C.3     1  UNL1        0.0750
      5 H          -1.6520    2.1339   -1.0060 H       1  UNL1        0.0428
      6 C          -2.3815    1.1065    0.7421 C.3     1  UNL1       -0.0375
      7 C          -3.7256    1.8382    0.7244 C.3     1  UNL1       -0.0378
      8 C          -3.5856    3.1729    1.4630 C.3     1  UNL1        0.0205
      9 N          -2.4781    3.9307    0.8646 N.3     1  UNL1       -0.1758
     10 S          -2.7082    5.4812    0.3305 S.O2    1  UNL1        0.0609
     11 O          -1.7024    5.7234   -0.6436 O.2     1  UNL1       -0.1528
     12 O          -4.0975    5.6111    0.0620 O.2     1  UNL1       -0.1528
     13 C          -2.3602    6.5557    1.6828 C.ar    1  UNL1        0.1055
     14 C          -3.3697    6.9189    2.5546 C.ar    1  UNL1       -0.0348
     15 C          -3.0967    7.7620    3.6155 C.ar    1  UNL1       -0.0483
     16 C          -1.8140    8.2415    3.8050 C.ar    1  UNL1        0.0549
     17 C          -1.5165    9.1609    4.9613 C.3     1  UNL1        0.4174
     18 F          -1.1465    8.4024    6.0771 F       1  UNL1       -0.1659
     19 F          -0.4698   10.0221    4.6150 F       1  UNL1       -0.1659
     20 F          -2.6570    9.9119    5.2654 F       1  UNL1       -0.1659
     21 C          -0.8043    7.8772    2.9341 C.ar    1  UNL1       -0.0483
     22 C          -1.0765    7.0311    1.8753 C.ar    1  UNL1       -0.0348
     23 C          -1.1623    3.2871    0.7489 C.3     1  UNL1        0.0336
     24 H          -2.4847    0.1453    0.2385 H       1  UNL1        0.0274
     25 H          -2.0701    0.9440    1.7740 H       1  UNL1        0.0274
     26 H          -4.0257    2.0229   -0.3071 H       1  UNL1        0.0278
     27 H          -4.4796    1.2260    1.2191 H       1  UNL1        0.0278
     28 H          -4.5106    3.7417    1.3684 H       1  UNL1        0.0444
     29 H          -3.3744    2.9874    2.5161 H       1  UNL1        0.0444
     30 H          -4.3718    6.5443    2.4065 H       1  UNL1        0.0637
     31 H          -3.8855    8.0463    4.2962 H       1  UNL1        0.0624
     32 H           0.1979    8.2515    3.0823 H       1  UNL1        0.0624
     33 H          -0.2876    6.7465    1.1949 H       1  UNL1        0.0637
     34 H          -0.7531    3.1106    1.7436 H       1  UNL1        0.0452
     35 H          -0.4889    3.9313    0.1836 H       1  UNL1        0.0452
@<TRIPOS>BOND
     1     1     2   ar
     2     2     3   ar
     3     2     4    1
     4     4     5    1
     5     4    23    1
     6     4     6    1
     7     6     7    1
     8     6    24    1
     9     6    25    1
    10     7     8    1
    11     7    26    1
    12     7    27    1
    13     8     9    1
    14     8    28    1
    15     8    29    1
    16    10     9    1
    17     9    23    1
    18    10    11    2
    19    10    12    2
    20    10    13    1
    21    13    22   ar
    22    13    14   ar
    23    14    15   ar
    24    14    30    1
    25    15    16   ar
    26    15    31    1
    27    16    17    1
    28    16    21   ar
    29    17    18    1
    30    17    19    1
    31    17    20    1
    32    21    22   ar
    33    21    32    1
    34    22    33    1
    35    23    34    1
    36    23    35    1
