@<TRIPOS>MOLECULE
ZINC000032980224
 46 48 0 0 0
SMALL
GASTEIGER

@<TRIPOS>ATOM
      1 C          -1.8695    2.1468   -2.6041 C.3     1  UNL1        0.0124
      2 C          -2.1078    0.6587   -2.6018 C.2     1  UNL1        0.2126
      3 O          -3.0083    0.1899   -1.9382 O.2     1  UNL1       -0.2759
      4 N          -1.3204   -0.1510   -3.3370 N.am    1  UNL1       -0.2987
      5 C          -0.2217    0.4025   -4.1411 C.3     1  UNL1        0.0305
      6 C           1.0818   -0.2980   -3.7379 C.3     1  UNL1        0.0308
      7 N           0.8575   -1.7504   -3.7496 N.am    1  UNL1       -0.2945
      8 C           1.6455   -2.5602   -4.4842 C.2     1  UNL1        0.2473
      9 O           2.4896   -2.0844   -5.2186 O.2     1  UNL1       -0.2700
     10 C           1.4837   -4.0250   -4.3972 C.ar    1  UNL1        0.0446
     11 C           1.4626   -4.6561   -3.1536 C.ar    1  UNL1       -0.0490
     12 C           1.3111   -6.0254   -3.0780 C.ar    1  UNL1       -0.0610
     13 C           1.1799   -6.7807   -4.2313 C.ar    1  UNL1       -0.0611
     14 C           1.1985   -6.1732   -5.4710 C.ar    1  UNL1       -0.0533
     15 C           1.3440   -4.7925   -5.5677 C.ar    1  UNL1       -0.0058
     16 C           1.3645   -4.1362   -6.8962 C.ar    1  UNL1       -0.0171
     17 C           0.4682   -3.1072   -7.1824 C.ar    1  UNL1       -0.0535
     18 C           0.4920   -2.4999   -8.4213 C.ar    1  UNL1       -0.0495
     19 C           1.4027   -2.9102   -9.3784 C.ar    1  UNL1        0.0548
     20 C           1.4235   -2.2429  -10.7294 C.3     1  UNL1        0.4174
     21 F           2.3003   -1.1532  -10.6979 F       1  UNL1       -0.1659
     22 F           1.8529   -3.1591  -11.6955 F       1  UNL1       -0.1659
     23 F           0.1366   -1.7968  -11.0491 F       1  UNL1       -0.1659
     24 C           2.2947   -3.9303   -9.1001 C.ar    1  UNL1       -0.0495
     25 C           2.2839   -4.5415   -7.8629 C.ar    1  UNL1       -0.0535
     26 C          -0.2412   -2.3039   -2.9456 C.3     1  UNL1        0.0308
     27 C          -1.5412   -1.6040   -3.3444 C.3     1  UNL1        0.0305
     28 H          -1.1716    2.4042   -1.8073 H       1  UNL1        0.0323
     29 H          -1.4505    2.4461   -3.5648 H       1  UNL1        0.0323
     30 H          -2.8139    2.6663   -2.4419 H       1  UNL1        0.0323
     31 H          -0.4187    0.2282   -5.1988 H       1  UNL1        0.0480
     32 H          -0.1348    1.4728   -3.9541 H       1  UNL1        0.0480
     33 H           1.8685   -0.0436   -4.4481 H       1  UNL1        0.0480
     34 H           1.3729    0.0191   -2.7365 H       1  UNL1        0.0480
     35 H           1.5651   -4.0733   -2.2501 H       1  UNL1        0.0625
     36 H           1.2952   -6.5112   -2.1136 H       1  UNL1        0.0618
     37 H           1.0626   -7.8520   -4.1605 H       1  UNL1        0.0618
     38 H           1.0956   -6.7691   -6.3658 H       1  UNL1        0.0624
     39 H          -0.2435   -2.7864   -6.4361 H       1  UNL1        0.0624
     40 H          -0.2020   -1.7030   -8.6443 H       1  UNL1        0.0623
     41 H           3.0035   -4.2463   -9.8512 H       1  UNL1        0.0623
     42 H           2.9810   -5.3376   -7.6466 H       1  UNL1        0.0624
     43 H          -0.3281   -3.3742   -3.1326 H       1  UNL1        0.0480
     44 H          -0.0443   -2.1296   -1.8878 H       1  UNL1        0.0480
     45 H          -2.3270   -1.8592   -2.6335 H       1  UNL1        0.0480
     46 H          -1.8340   -1.9191   -4.3459 H       1  UNL1        0.0480
@<TRIPOS>BOND
     1     1     2    1
     2     1    28    1
     3     1    29    1
     4     1    30    1
     5     2     3    2
     6     2     4   am
     7     4    27    1
     8     4     5    1
     9     5     6    1
    10     5    31    1
    11     5    32    1
    12     6     7    1
    13     6    33    1
    14     6    34    1
    15     7     8   am
    16     7    26    1
    17     8     9    2
    18     8    10    1
    19    10    15   ar
    20    10    11   ar
    21    11    12   ar
    22    11    35    1
    23    12    13   ar
    24    12    36    1
    25    13    14   ar
    26    13    37    1
    27    14    15   ar
    28    14    38    1
    29    15    16    1
    30    16    25   ar
    31    16    17   ar
    32    17    18   ar
    33    17    39    1
    34    18    19   ar
    35    18    40    1
    36    19    20    1
    37    19    24   ar
    38    20    21    1
    39    20    22    1
    40    20    23    1
    41    24    25   ar
    42    24    41    1
    43    25    42    1
    44    26    27    1
    45    26    43    1
    46    26    44    1
    47    27    45    1
    48    27    46    1
