@<TRIPOS>MOLECULE
ZINC000237507918
 40 41 0 0 0
SMALL
GASTEIGER

@<TRIPOS>ATOM
      1 C           1.0072   -0.6039   -0.9833 C.3     1  UNL1       -0.0389
      2 C           0.0021   -0.0041    0.0020 C.3     1  UNL1        0.1098
      3 H           0.2790   -0.2831    1.0186 H       1  UNL1        0.0577
      4 C           0.0080    1.4975   -0.1260 C.2     1  UNL1        0.3726
      5 O          -0.8366    2.0547   -0.8062 O.co2   1  UNL1       -0.2446
      6 O           0.8575    2.1551    0.4506 O.co2   1  UNL1       -0.2446
      7 N          -1.3420   -0.5157   -0.2973 N.3     1  UNL1       -0.2875
      8 C          -2.3466    0.0975    0.5818 C.3     1  UNL1        0.0141
      9 C          -3.7470   -0.3213    0.1217 C.3     1  UNL1        0.0333
     10 N          -3.7958   -1.7896    0.0508 N.3     1  UNL1       -0.1741
     11 S          -5.0077   -2.6367    0.7965 S.O2    1  UNL1        0.0609
     12 O          -4.5020   -3.9451    1.0231 O.2     1  UNL1       -0.1528
     13 O          -5.4991   -1.8024    1.8366 O.2     1  UNL1       -0.1528
     14 C          -6.3193   -2.8050   -0.3680 C.ar    1  UNL1        0.1055
     15 C          -7.3084   -1.8418   -0.4390 C.ar    1  UNL1       -0.0348
     16 C          -8.3374   -1.9738   -1.3525 C.ar    1  UNL1       -0.0483
     17 C          -8.3771   -3.0688   -2.1954 C.ar    1  UNL1        0.0549
     18 C          -9.4992   -3.2130   -3.1910 C.3     1  UNL1        0.4174
     19 F          -9.1382   -2.5951   -4.3931 F       1  UNL1       -0.1659
     20 F          -9.7473   -4.5705   -3.4206 F       1  UNL1       -0.1659
     21 F         -10.6536   -2.6072   -2.6835 F       1  UNL1       -0.1659
     22 C          -7.3873   -4.0312   -2.1253 C.ar    1  UNL1       -0.0483
     23 C          -6.3562   -3.8973   -1.2144 C.ar    1  UNL1       -0.0348
     24 C          -2.7401   -2.4855   -0.7004 C.3     1  UNL1        0.0333
     25 C          -1.3793   -1.9815   -0.2079 C.3     1  UNL1        0.0141
     26 H           2.0045   -0.2243   -0.7612 H       1  UNL1        0.0250
     27 H           1.0029   -1.6900   -0.8907 H       1  UNL1        0.0250
     28 H           0.7303   -0.3248   -1.9999 H       1  UNL1        0.0250
     29 H          -2.1854   -0.2365    1.6067 H       1  UNL1        0.0440
     30 H          -2.2575    1.1828    0.5343 H       1  UNL1        0.0440
     31 H          -4.4890    0.0357    0.8358 H       1  UNL1        0.0456
     32 H          -3.9500    0.0998   -0.8630 H       1  UNL1        0.0456
     33 H          -7.2774   -0.9863    0.2195 H       1  UNL1        0.0637
     34 H          -9.1105   -1.2217   -1.4075 H       1  UNL1        0.0624
     35 H          -7.4182   -4.8865   -2.7841 H       1  UNL1        0.0624
     36 H          -5.5829   -4.6492   -1.1596 H       1  UNL1        0.0637
     37 H          -2.8164   -3.5594   -0.5298 H       1  UNL1        0.0456
     38 H          -2.8464   -2.2725   -1.7641 H       1  UNL1        0.0456
     39 H          -0.5888   -2.4040   -0.8281 H       1  UNL1        0.0440
     40 H          -1.2316   -2.2866    0.8280 H       1  UNL1        0.0440
@<TRIPOS>BOND
     1     1     2    1
     2     1    26    1
     3     1    27    1
     4     1    28    1
     5     2     3    1
     6     2     4    1
     7     2     7    1
     8     4     5   ar
     9     4     6   ar
    10     7    25    1
    11     7     8    1
    12     8     9    1
    13     8    29    1
    14     8    30    1
    15     9    10    1
    16     9    31    1
    17     9    32    1
    18    11    10    1
    19    10    24    1
    20    11    12    2
    21    11    13    2
    22    11    14    1
    23    14    23   ar
    24    14    15   ar
    25    15    16   ar
    26    15    33    1
    27    16    17   ar
    28    16    34    1
    29    17    18    1
    30    17    22   ar
    31    18    19    1
    32    18    20    1
    33    18    21    1
    34    22    23   ar
    35    22    35    1
    36    23    36    1
    37    24    25    1
    38    24    37    1
    39    24    38    1
    40    25    39    1
    41    25    40    1
