@<TRIPOS>MOLECULE
ZINC000409142268
 47 48 0 0 0
SMALL
GASTEIGER

@<TRIPOS>ATOM
      1 C           0.1005    1.9852   -1.0725 C.3     1  UNL1        0.0788
      2 O          -0.4623    0.7655   -1.5599 O.3     1  UNL1       -0.4951
      3 C           0.3386   -0.0204   -2.3284 C.ar    1  UNL1        0.1202
      4 C           1.6403    0.3734   -2.6011 C.ar    1  UNL1       -0.0182
      5 C           2.4545   -0.4243   -3.3810 C.ar    1  UNL1       -0.0356
      6 C           1.9696   -1.6209   -3.8921 C.ar    1  UNL1        0.0519
      7 N           2.7940   -2.4301   -4.6820 N.pl3   1  UNL1       -0.1960
      8 C           3.1912   -3.7573   -4.2056 C.3     1  UNL1        0.1191
      9 H           3.7913   -4.2527   -4.9689 H       1  UNL1        0.0612
     10 C           1.9410   -4.5914   -3.9188 C.3     1  UNL1       -0.0362
     11 C           4.0014   -3.6161   -2.9428 C.2     1  UNL1        0.2392
     12 O           4.2251   -2.5151   -2.4857 O.2     1  UNL1       -0.2734
     13 N           4.4775   -4.7132   -2.3214 N.am    1  UNL1       -0.2827
     14 C           5.3229   -4.5788   -1.2138 C.ar    1  UNL1        0.0524
     15 C           6.0038   -3.3885   -0.9988 C.ar    1  UNL1       -0.0274
     16 C           6.8371   -3.2587    0.0955 C.ar    1  UNL1        0.0566
     17 C           7.5761   -1.9663    0.3294 C.3     1  UNL1        0.4175
     18 F           6.7929   -1.1176    1.1191 F       1  UNL1       -0.1659
     19 F           8.7831   -2.2314    0.9853 F       1  UNL1       -0.1659
     20 F           7.8384   -1.3502   -0.8989 F       1  UNL1       -0.1659
     21 C           6.9936   -4.3125    0.9765 C.ar    1  UNL1       -0.0486
     22 C           6.3173   -5.5004    0.7657 C.ar    1  UNL1       -0.0411
     23 C           5.4778   -5.6350   -0.3236 C.ar    1  UNL1        0.0621
     24 CL          4.6287   -7.1260   -0.5876 Cl      1  UNL1       -0.0816
     25 S           3.3207   -1.8872   -6.1552 S.O2    1  UNL1        0.0432
     26 C           4.8832   -1.0399   -5.7932 C.3     1  UNL1        0.0738
     27 O           3.5577   -3.0731   -6.9013 O.2     1  UNL1       -0.1552
     28 O           2.3290   -0.9533   -6.5595 O.2     1  UNL1       -0.1552
     29 C           0.6663   -2.0145   -3.6185 C.ar    1  UNL1       -0.0356
     30 C          -0.1448   -1.2181   -2.8341 C.ar    1  UNL1       -0.0182
     31 H           0.9712    1.7625   -0.4556 H       1  UNL1        0.0660
     32 H           0.4016    2.6084   -1.9145 H       1  UNL1        0.0660
     33 H          -0.6419    2.5149   -0.4755 H       1  UNL1        0.0660
     34 H           2.0171    1.3043   -2.2039 H       1  UNL1        0.0655
     35 H           3.4678   -0.1173   -3.5936 H       1  UNL1        0.0638
     36 H           2.2342   -5.6104   -3.6662 H       1  UNL1        0.0253
     37 H           1.3952   -4.1527   -3.0835 H       1  UNL1        0.0253
     38 H           1.3030   -4.6054   -4.8025 H       1  UNL1        0.0253
     39 H           4.2343   -5.5959   -2.6417 H       1  UNL1        0.1549
     40 H           5.8826   -2.5647   -1.6866 H       1  UNL1        0.0642
     41 H           7.6456   -4.2081    1.8311 H       1  UNL1        0.0623
     42 H           6.4419   -6.3220    1.4556 H       1  UNL1        0.0633
     43 H           5.6304   -1.7714   -5.4852 H       1  UNL1        0.0482
     44 H           5.2301   -0.5202   -6.6863 H       1  UNL1        0.0482
     45 H           4.7282   -0.3190   -4.9904 H       1  UNL1        0.0482
     46 H           0.2884   -2.9450   -4.0156 H       1  UNL1        0.0638
     47 H          -1.1584   -1.5242   -2.6209 H       1  UNL1        0.0655
@<TRIPOS>BOND
     1     1     2    1
     2     1    31    1
     3     1    32    1
     4     1    33    1
     5     2     3    1
     6     3    30   ar
     7     3     4   ar
     8     4     5   ar
     9     4    34    1
    10     5     6   ar
    11     5    35    1
    12     6     7    1
    13     6    29   ar
    14     7     8    1
    15    25     7    1
    16     8     9    1
    17     8    10    1
    18     8    11    1
    19    10    36    1
    20    10    37    1
    21    10    38    1
    22    11    12    2
    23    11    13   am
    24    13    14    1
    25    13    39    1
    26    14    23   ar
    27    14    15   ar
    28    15    16   ar
    29    15    40    1
    30    16    17    1
    31    16    21   ar
    32    17    18    1
    33    17    19    1
    34    17    20    1
    35    21    22   ar
    36    21    41    1
    37    22    23   ar
    38    22    42    1
    39    23    24    1
    40    25    26    1
    41    25    27    2
    42    25    28    2
    43    26    43    1
    44    26    44    1
    45    26    45    1
    46    29    30   ar
    47    29    46    1
    48    30    47    1
