@<TRIPOS>MOLECULE
ZINC000004838960
 57 58 0 0 0
SMALL
GASTEIGER

@<TRIPOS>ATOM
      1 C          -0.0187    1.5258    0.0104 C.3     1  UNL1       -0.0636
      2 C           0.0021   -0.0041    0.0020 C.3     1  UNL1       -0.0376
      3 C           0.7182   -0.4975   -1.2568 C.3     1  UNL1        0.0201
      4 H           0.2444   -0.0644   -2.1377 H       1  UNL1        0.0495
      5 C           0.6303   -2.0233   -1.3286 C.3     1  UNL1       -0.0466
      6 N           2.1249   -0.0911   -1.2094 N.am    1  UNL1       -0.3116
      7 C           2.8241    0.0515   -2.3527 C.2     1  UNL1        0.2290
      8 O           2.2887   -0.1566   -3.4209 O.2     1  UNL1       -0.2743
      9 C           4.2711    0.4696   -2.3039 C.3     1  UNL1        0.0971
     10 N           4.8016    0.5526   -3.6670 N.3     1  UNL1       -0.1635
     11 C           4.6200    1.7771   -4.4504 C.3     1  UNL1        0.0460
     12 C           5.7185    2.7538   -4.1180 C.ar    1  UNL1       -0.0317
     13 C           5.5505    3.6582   -3.0862 C.ar    1  UNL1       -0.0573
     14 C           6.5581    4.5540   -2.7813 C.ar    1  UNL1       -0.0615
     15 C           7.7341    4.5451   -3.5080 C.ar    1  UNL1       -0.0617
     16 C           7.9025    3.6401   -4.5392 C.ar    1  UNL1       -0.0615
     17 C           6.8965    2.7414   -4.8413 C.ar    1  UNL1       -0.0573
     18 S           5.6067   -0.7377   -4.3221 S.O2    1  UNL1        0.0617
     19 O           6.4435   -0.2121   -5.3433 O.2     1  UNL1       -0.1528
     20 O           6.0998   -1.5001   -3.2290 O.2     1  UNL1       -0.1528
     21 C           4.4078   -1.7447   -5.1304 C.ar    1  UNL1        0.1092
     22 C           3.7699   -2.7523   -4.4319 C.ar    1  UNL1       -0.0317
     23 C           2.8286   -3.5456   -5.0619 C.ar    1  UNL1       -0.0145
     24 C           2.5229   -3.3309   -6.3958 C.ar    1  UNL1        0.1616
     25 O           1.5971   -4.1099   -7.0167 O.3     1  UNL1       -0.4915
     26 C           0.9782   -5.1319   -6.2327 C.3     1  UNL1        0.0790
     27 C           3.1650   -2.3158   -7.0991 C.ar    1  UNL1        0.1633
     28 O           2.8680   -2.1009   -8.4087 O.3     1  UNL1       -0.4914
     29 C           3.5661   -1.0419   -9.0669 C.3     1  UNL1        0.0790
     30 C           4.1032   -1.5214   -6.4607 C.ar    1  UNL1        0.0101
     31 H           1.0039    1.9031    0.0027 H       1  UNL1        0.0230
     32 H          -0.5459    1.8868   -0.8726 H       1  UNL1        0.0230
     33 H          -0.5289    1.8773    0.9072 H       1  UNL1        0.0230
     34 H           0.5293   -0.3651    0.8851 H       1  UNL1        0.0280
     35 H          -1.0205   -0.3814    0.0098 H       1  UNL1        0.0280
     36 H           1.1041   -2.4564   -0.4477 H       1  UNL1        0.0247
     37 H          -0.4163   -2.3257   -1.3639 H       1  UNL1        0.0247
     38 H           1.1405   -2.3748   -2.2254 H       1  UNL1        0.0247
     39 H           2.5531    0.0754   -0.3551 H       1  UNL1        0.1490
     40 H           4.3517    1.4443   -1.8227 H       1  UNL1        0.0539
     41 H           4.8424   -0.2644   -1.7357 H       1  UNL1        0.0539
     42 H           4.6563    1.5373   -5.5131 H       1  UNL1        0.0493
     43 H           3.6540    2.2217   -4.2111 H       1  UNL1        0.0493
     44 H           4.6317    3.6651   -2.5185 H       1  UNL1        0.0621
     45 H           6.4265    5.2611   -1.9756 H       1  UNL1        0.0618
     46 H           8.5210    5.2455   -3.2702 H       1  UNL1        0.0618
     47 H           8.8211    3.6334   -5.1071 H       1  UNL1        0.0618
     48 H           7.0281    2.0343   -5.6470 H       1  UNL1        0.0621
     49 H           4.0073   -2.9207   -3.3919 H       1  UNL1        0.0638
     50 H           2.3320   -4.3328   -4.5140 H       1  UNL1        0.0656
     51 H           1.7401   -5.8192   -5.8649 H       1  UNL1        0.0660
     52 H           0.4600   -4.6781   -5.3879 H       1  UNL1        0.0660
     53 H           0.2624   -5.6779   -6.8472 H       1  UNL1        0.0660
     54 H           4.6375   -1.2402   -9.0384 H       1  UNL1        0.0660
     55 H           3.2358   -0.9783  -10.1037 H       1  UNL1        0.0660
     56 H           3.3574   -0.0994   -8.5607 H       1  UNL1        0.0660
     57 H           4.6029   -0.7331   -7.0041 H       1  UNL1        0.0675
@<TRIPOS>BOND
     1     1     2    1
     2     1    31    1
     3     1    32    1
     4     1    33    1
     5     2     3    1
     6     2    34    1
     7     2    35    1
     8     3     4    1
     9     3     5    1
    10     3     6    1
    11     5    36    1
    12     5    37    1
    13     5    38    1
    14     6     7   am
    15     6    39    1
    16     7     8    2
    17     7     9    1
    18     9    10    1
    19     9    40    1
    20     9    41    1
    21    10    11    1
    22    18    10    1
    23    11    12    1
    24    11    42    1
    25    11    43    1
    26    12    17   ar
    27    12    13   ar
    28    13    14   ar
    29    13    44    1
    30    14    15   ar
    31    14    45    1
    32    15    16   ar
    33    15    46    1
    34    16    17   ar
    35    16    47    1
    36    17    48    1
    37    18    19    2
    38    18    20    2
    39    18    21    1
    40    21    30   ar
    41    21    22   ar
    42    22    23   ar
    43    22    49    1
    44    23    24   ar
    45    23    50    1
    46    24    25    1
    47    24    27   ar
    48    25    26    1
    49    26    51    1
    50    26    52    1
    51    26    53    1
    52    27    28    1
    53    27    30   ar
    54    28    29    1
    55    29    54    1
    56    29    55    1
    57    29    56    1
    58    30    57    1
