@<TRIPOS>MOLECULE
ZINC000028654815
 46 48 0 0 0
SMALL
GASTEIGER

@<TRIPOS>ATOM
      1 C          -1.2955    1.7031    0.7798 C.3     1  UNL1       -0.0372
      2 C          -1.2287    0.1834    0.9441 C.3     1  UNL1        0.0720
      3 H          -0.1905   -0.1437    0.8871 H       1  UNL1        0.0609
      4 C          -2.0390   -0.4882   -0.1705 C.3     1  UNL1        0.0411
      5 N          -2.1153   -1.9297    0.1151 N.am    1  UNL1       -0.2926
      6 C          -1.7978   -2.8412   -0.8256 C.2     1  UNL1        0.2473
      7 O          -1.5330   -2.4809   -1.9562 O.2     1  UNL1       -0.2700
      8 C          -1.7715   -4.2769   -0.4832 C.ar    1  UNL1        0.0446
      9 C          -1.0166   -4.7264    0.6001 C.ar    1  UNL1       -0.0490
     10 C          -0.9956   -6.0694    0.9157 C.ar    1  UNL1       -0.0610
     11 C          -1.7203   -6.9777    0.1624 C.ar    1  UNL1       -0.0611
     12 C          -2.4732   -6.5510   -0.9134 C.ar    1  UNL1       -0.0533
     13 C          -2.5122   -5.1996   -1.2437 C.ar    1  UNL1       -0.0058
     14 C          -3.3190   -4.7372   -2.3976 C.ar    1  UNL1       -0.0171
     15 C          -4.2453   -3.7077   -2.2362 C.ar    1  UNL1       -0.0535
     16 C          -4.9937   -3.2814   -3.3143 C.ar    1  UNL1       -0.0495
     17 C          -4.8264   -3.8734   -4.5533 C.ar    1  UNL1        0.0548
     18 C          -5.6469   -3.4032   -5.7267 C.3     1  UNL1        0.4174
     19 F          -4.9689   -2.3727   -6.3868 F       1  UNL1       -0.1659
     20 F          -5.8502   -4.4685   -6.6104 F       1  UNL1       -0.1659
     21 F          -6.8832   -2.9318   -5.2722 F       1  UNL1       -0.1659
     22 C          -3.9086   -4.8950   -4.7197 C.ar    1  UNL1       -0.0495
     23 C          -3.1506   -5.3262   -3.6502 C.ar    1  UNL1       -0.0535
     24 C          -2.5479   -2.3467    1.4584 C.3     1  UNL1        0.0411
     25 C          -1.7128   -1.5846    2.4936 C.3     1  UNL1        0.0720
     26 H          -0.6766   -1.9188    2.4428 H       1  UNL1        0.0609
     27 C          -2.2677   -1.8512    3.8943 C.3     1  UNL1       -0.0372
     28 O          -1.7763   -0.1844    2.2124 O.3     1  UNL1       -0.3708
     29 H          -0.7206    2.1799    1.5737 H       1  UNL1        0.0255
     30 H          -0.8795    1.9825   -0.1882 H       1  UNL1        0.0255
     31 H          -2.3339    2.0294    0.8369 H       1  UNL1        0.0255
     32 H          -3.0436   -0.0661   -0.1995 H       1  UNL1        0.0490
     33 H          -1.5459   -0.3296   -1.1296 H       1  UNL1        0.0490
     34 H          -0.4485   -4.0235    1.1914 H       1  UNL1        0.0625
     35 H          -0.4101   -6.4144    1.7551 H       1  UNL1        0.0618
     36 H          -1.6961   -8.0268    0.4179 H       1  UNL1        0.0618
     37 H          -3.0357   -7.2656   -1.4960 H       1  UNL1        0.0624
     38 H          -4.3770   -3.2450   -1.2692 H       1  UNL1        0.0624
     39 H          -5.7118   -2.4842   -3.1904 H       1  UNL1        0.0623
     40 H          -3.7823   -5.3534   -5.6894 H       1  UNL1        0.0623
     41 H          -2.4342   -6.1236   -3.7813 H       1  UNL1        0.0624
     42 H          -3.6037   -2.1117    1.5934 H       1  UNL1        0.0490
     43 H          -2.3918   -3.4188    1.5780 H       1  UNL1        0.0490
     44 H          -2.2216   -2.9195    4.1060 H       1  UNL1        0.0255
     45 H          -1.6734   -1.3091    4.6298 H       1  UNL1        0.0255
     46 H          -3.3034   -1.5152    3.9449 H       1  UNL1        0.0255
@<TRIPOS>BOND
     1     1     2    1
     2     1    29    1
     3     1    30    1
     4     1    31    1
     5     2     3    1
     6     2    28    1
     7     2     4    1
     8     4     5    1
     9     4    32    1
    10     4    33    1
    11     5     6   am
    12     5    24    1
    13     6     7    2
    14     6     8    1
    15     8    13   ar
    16     8     9   ar
    17     9    10   ar
    18     9    34    1
    19    10    11   ar
    20    10    35    1
    21    11    12   ar
    22    11    36    1
    23    12    13   ar
    24    12    37    1
    25    13    14    1
    26    14    23   ar
    27    14    15   ar
    28    15    16   ar
    29    15    38    1
    30    16    17   ar
    31    16    39    1
    32    17    18    1
    33    17    22   ar
    34    18    19    1
    35    18    20    1
    36    18    21    1
    37    22    23   ar
    38    22    40    1
    39    23    41    1
    40    24    25    1
    41    24    42    1
    42    24    43    1
    43    25    26    1
    44    25    27    1
    45    25    28    1
    46    27    44    1
    47    27    45    1
    48    27    46    1
