@<TRIPOS>MOLECULE
ZINC000408623704
 47 48 0 0 0
SMALL
GASTEIGER

@<TRIPOS>ATOM
      1 C           5.1422   -2.0609    0.0778 C.3     1  UNL1       -0.0507
      2 C           4.5667   -3.2541    0.8432 C.3     1  UNL1        0.0177
      3 N           3.8862   -2.7779    2.0500 N.3     1  UNL1       -0.1771
      4 C           2.4927   -2.3317    1.9775 C.3     1  UNL1        0.0177
      5 C           1.5629   -3.5398    2.1073 C.3     1  UNL1       -0.0507
      6 S           4.6923   -2.7440    3.4962 S.O2    1  UNL1        0.0608
      7 O           3.6983   -2.7886    4.5107 O.2     1  UNL1       -0.1528
      8 O           5.7411   -3.6972    3.3934 O.2     1  UNL1       -0.1528
      9 C           5.4651   -1.1658    3.6258 C.ar    1  UNL1        0.1057
     10 C           6.7448   -0.9818    3.1358 C.ar    1  UNL1       -0.0319
     11 C           7.3529    0.2546    3.2362 C.ar    1  UNL1       -0.0181
     12 C           6.6782    1.3121    3.8288 C.ar    1  UNL1        0.1213
     13 O           7.2741    2.5294    3.9283 O.3     1  UNL1       -0.4828
     14 C           6.5201    3.5719    4.5502 C.3     1  UNL1        0.1655
     15 C           7.3362    4.8386    4.5706 C.2     1  UNL1        0.2550
     16 O           8.4537    4.8478    4.0988 O.2     1  UNL1       -0.2717
     17 N           6.8245    5.9613    5.1129 N.am    1  UNL1       -0.2781
     18 C           7.6201    7.1096    5.2284 C.ar    1  UNL1        0.1047
     19 C           8.3929    7.3102    6.3660 C.ar    1  UNL1        0.1473
     20 F           8.3789    6.3982    7.3626 F       1  UNL1       -0.2034
     21 C           9.1768    8.4447    6.4763 C.ar    1  UNL1       -0.0244
     22 C           9.1918    9.3786    5.4568 C.ar    1  UNL1       -0.0562
     23 C           8.4244    9.1826    4.3235 C.ar    1  UNL1       -0.0244
     24 C           7.6426    8.0476    4.2031 C.ar    1  UNL1        0.1473
     25 F           6.8934    7.8567    3.0952 F       1  UNL1       -0.2034
     26 C           5.3940    1.1249    4.3192 C.ar    1  UNL1       -0.0181
     27 C           4.7885   -0.1122    4.2121 C.ar    1  UNL1       -0.0319
     28 H           5.8541   -1.5319    0.7114 H       1  UNL1        0.0243
     29 H           5.6485   -2.4152   -0.8202 H       1  UNL1        0.0243
     30 H           4.3342   -1.3855   -0.2033 H       1  UNL1        0.0243
     31 H           3.8548   -3.7831    0.2095 H       1  UNL1        0.0441
     32 H           5.3747   -3.9295    1.1242 H       1  UNL1        0.0441
     33 H           2.2930   -1.6307    2.7879 H       1  UNL1        0.0441
     34 H           2.3180   -1.8399    1.0205 H       1  UNL1        0.0441
     35 H           1.7376   -4.0315    3.0643 H       1  UNL1        0.0243
     36 H           0.5261   -3.2078    2.0533 H       1  UNL1        0.0243
     37 H           1.7626   -4.2407    1.2968 H       1  UNL1        0.0243
     38 H           7.2696   -1.8053    2.6746 H       1  UNL1        0.0638
     39 H           8.3528    0.3977    2.8539 H       1  UNL1        0.0655
     40 H           5.6014    3.7406    3.9885 H       1  UNL1        0.0795
     41 H           6.2734    3.2822    5.5717 H       1  UNL1        0.0795
     42 H           5.9056    5.9748    5.4233 H       1  UNL1        0.1551
     43 H           9.7776    8.6013    7.3600 H       1  UNL1        0.0647
     44 H           9.8043   10.2637    5.5461 H       1  UNL1        0.0619
     45 H           8.4387    9.9144    3.5293 H       1  UNL1        0.0647
     46 H           4.8669    1.9465    4.7812 H       1  UNL1        0.0655
     47 H           3.7887   -0.2583    4.5934 H       1  UNL1        0.0638
@<TRIPOS>BOND
     1     1     2    1
     2     1    28    1
     3     1    29    1
     4     1    30    1
     5     2     3    1
     6     2    31    1
     7     2    32    1
     8     3     4    1
     9     6     3    1
    10     4     5    1
    11     4    33    1
    12     4    34    1
    13     5    35    1
    14     5    36    1
    15     5    37    1
    16     6     7    2
    17     6     8    2
    18     6     9    1
    19     9    27   ar
    20     9    10   ar
    21    10    11   ar
    22    10    38    1
    23    11    12   ar
    24    11    39    1
    25    12    13    1
    26    12    26   ar
    27    13    14    1
    28    14    15    1
    29    14    40    1
    30    14    41    1
    31    15    16    2
    32    15    17   am
    33    17    18    1
    34    17    42    1
    35    18    24   ar
    36    18    19   ar
    37    19    20    1
    38    19    21   ar
    39    21    22   ar
    40    21    43    1
    41    22    23   ar
    42    22    44    1
    43    23    24   ar
    44    23    45    1
    45    24    25    1
    46    26    27   ar
    47    26    46    1
    48    27    47    1
