@<TRIPOS>MOLECULE
ZINC000009441642
 50 52 0 0 0
SMALL
GASTEIGER

@<TRIPOS>ATOM
      1 C           0.7268   -0.4455    1.4437 C.3     1  UNL1       -0.0356
      2 C          -0.1813    0.5380    2.1846 C.3     1  UNL1        0.1107
      3 H          -0.1594    1.5038    1.6797 H       1  UNL1        0.0622
      4 C          -1.5923    0.0087    2.1954 C.2     1  UNL1        0.2399
      5 O          -2.1483   -0.2143    3.2500 O.2     1  UNL1       -0.2732
      6 N          -2.2363   -0.2169    1.0331 N.am    1  UNL1       -0.2838
      7 C          -3.5087   -0.7989    1.0398 C.ar    1  UNL1        0.0336
      8 C          -3.8790   -1.6738    0.0270 C.ar    1  UNL1       -0.0386
      9 C          -5.1357   -2.2466    0.0365 C.ar    1  UNL1       -0.0336
     10 C          -6.0250   -1.9493    1.0528 C.ar    1  UNL1        0.1056
     11 S          -7.6276   -2.6817    1.0609 S.O2    1  UNL1        0.0609
     12 O          -8.4581   -1.8214    1.8286 O.2     1  UNL1       -0.1528
     13 O          -7.9121   -3.0395   -0.2845 O.2     1  UNL1       -0.1528
     14 N          -7.5140   -4.1002    1.9080 N.3     1  UNL1       -0.1766
     15 C          -7.1880   -5.4153    1.3372 C.3     1  UNL1        0.0205
     16 C          -7.2219   -6.4375    2.4928 C.3     1  UNL1       -0.0373
     17 C          -8.1187   -5.7387    3.5486 C.3     1  UNL1       -0.0373
     18 C          -7.7168   -4.2523    3.3603 C.3     1  UNL1        0.0205
     19 C          -5.6592   -1.0788    2.0631 C.ar    1  UNL1       -0.0336
     20 C          -4.4019   -0.5072    2.0624 C.ar    1  UNL1       -0.0386
     21 N           0.2914    0.6964    3.5622 N.ar    1  UNL1       -0.3030
     22 C           0.6624    1.9241    4.0075 C.ar    1  UNL1        0.0204
     23 C           1.1028    2.0952    5.2758 C.ar    1  UNL1        0.0712
     24 C           1.5108    3.4648    5.7541 C.3     1  UNL1        0.4188
     25 F           0.4307    4.0734    6.4022 F       1  UNL1       -0.1658
     26 F           2.5832    3.3474    6.6448 F       1  UNL1       -0.1658
     27 F           1.8974    4.2451    4.6591 F       1  UNL1       -0.1658
     28 C           1.1786    0.9974    6.1444 C.ar    1  UNL1       -0.0436
     29 C           0.8050   -0.2352    5.6955 C.ar    1  UNL1        0.0035
     30 C           0.3476   -0.3764    4.3741 C.ar    1  UNL1        0.2520
     31 O           0.0101   -1.4737    3.9594 O.2     1  UNL1       -0.2677
     32 H           1.7473   -0.0626    1.4360 H       1  UNL1        0.0254
     33 H           0.7049   -1.4113    1.9487 H       1  UNL1        0.0254
     34 H           0.3751   -0.5633    0.4188 H       1  UNL1        0.0254
     35 H          -1.8177    0.0243    0.1920 H       1  UNL1        0.1549
     36 H          -3.1852   -1.9058   -0.7674 H       1  UNL1        0.0637
     37 H          -5.4243   -2.9271   -0.7509 H       1  UNL1        0.0638
     38 H          -7.9262   -5.6849    0.5820 H       1  UNL1        0.0444
     39 H          -6.1927   -5.3904    0.8934 H       1  UNL1        0.0444
     40 H          -7.6709   -7.3751    2.1652 H       1  UNL1        0.0278
     41 H          -6.2202   -6.6058    2.8883 H       1  UNL1        0.0278
     42 H          -9.1749   -5.8924    3.3274 H       1  UNL1        0.0278
     43 H          -7.8779   -6.0822    4.5547 H       1  UNL1        0.0278
     44 H          -6.7957   -4.0368    3.9018 H       1  UNL1        0.0444
     45 H          -8.5190   -3.5965    3.6986 H       1  UNL1        0.0444
     46 H          -6.3560   -0.8487    2.8555 H       1  UNL1        0.0638
     47 H          -4.1168    0.1726    2.8517 H       1  UNL1        0.0637
     48 H           0.6060    2.7732    3.3424 H       1  UNL1        0.0816
     49 H           1.5294    1.1261    7.1578 H       1  UNL1        0.0625
     50 H           0.8563   -1.0929    6.3497 H       1  UNL1        0.0672
@<TRIPOS>BOND
     1     1     2    1
     2     1    32    1
     3     1    33    1
     4     1    34    1
     5     2     3    1
     6     2     4    1
     7     2    21    1
     8     4     5    2
     9     4     6   am
    10     6     7    1
    11     6    35    1
    12     7    20   ar
    13     7     8   ar
    14     8     9   ar
    15     8    36    1
    16     9    10   ar
    17     9    37    1
    18    10    11    1
    19    10    19   ar
    20    11    12    2
    21    11    13    2
    22    11    14    1
    23    14    18    1
    24    14    15    1
    25    15    16    1
    26    15    38    1
    27    15    39    1
    28    16    17    1
    29    16    40    1
    30    16    41    1
    31    17    18    1
    32    17    42    1
    33    17    43    1
    34    18    44    1
    35    18    45    1
    36    19    20   ar
    37    19    46    1
    38    20    47    1
    39    21    30   ar
    40    21    22   ar
    41    22    23   ar
    42    22    48    1
    43    23    24    1
    44    23    28   ar
    45    24    25    1
    46    24    26    1
    47    24    27    1
    48    28    29   ar
    49    28    49    1
    50    29    30   ar
    51    29    50    1
    52    30    31    2
