@<TRIPOS>MOLECULE
ZINC000097166177
 37 38 0 0 0
SMALL
GASTEIGER

@<TRIPOS>ATOM
      1 C           0.1735    1.8671    0.2407 C.3     1  UNL1       -0.0428
      2 C          -0.0943    0.3708    0.0667 C.3     1  UNL1        0.0632
      3 C          -1.6008    0.1052    0.0965 C.3     1  UNL1        0.0640
      4 O          -2.2344    0.8368   -0.9548 O.3     1  UNL1       -0.3931
      5 C           0.5015   -0.1170   -1.2707 C.3     1  UNL1       -0.0298
      6 C           1.8683   -0.7150   -0.8446 C.3     1  UNL1       -0.0367
      7 C           1.5225   -1.3298    0.5346 C.3     1  UNL1        0.0212
      8 N           0.5678   -0.3839    1.1407 N.3     1  UNL1       -0.1685
      9 S           0.2880   -0.2014    2.7626 S.O2    1  UNL1        0.0628
     10 O          -1.0778    0.1677    2.8952 O.2     1  UNL1       -0.1528
     11 O           0.8501   -1.3417    3.3976 O.2     1  UNL1       -0.1528
     12 C           1.2326    1.1847    3.3021 C.ar    1  UNL1        0.1242
     13 C           0.5931    2.3332    3.7283 C.ar    1  UNL1       -0.0223
     14 C           1.3342    3.4210    4.1517 C.ar    1  UNL1        0.0567
     15 C           0.6361    4.6731    4.6163 C.3     1  UNL1        0.4175
     16 F           0.4021    4.5929    5.9933 F       1  UNL1       -0.1659
     17 F           1.4413    5.7843    4.3441 F       1  UNL1       -0.1659
     18 F          -0.5831    4.8045    3.9430 F       1  UNL1       -0.1659
     19 C           2.7151    3.3602    4.1493 C.ar    1  UNL1       -0.0486
     20 C           3.3559    2.2119    3.7231 C.ar    1  UNL1       -0.0410
     21 C           2.6149    1.1214    3.3045 C.ar    1  UNL1        0.0673
     22 CL          3.4191   -0.3210    2.7692 Cl      1  UNL1       -0.0815
     23 H           1.2471    2.0511    0.2004 H       1  UNL1        0.0249
     24 H          -0.3201    2.4199   -0.5585 H       1  UNL1        0.0249
     25 H          -0.2156    2.1962    1.2042 H       1  UNL1        0.0249
     26 H          -1.7847   -0.9604   -0.0404 H       1  UNL1        0.0576
     27 H          -2.0069    0.4236    1.0566 H       1  UNL1        0.0576
     28 H          -3.1929    0.7156   -0.9961 H       1  UNL1        0.2095
     29 H          -0.1317   -0.8829   -1.7185 H       1  UNL1        0.0285
     30 H           0.6429    0.7178   -1.9572 H       1  UNL1        0.0285
     31 H           2.1935   -1.4844   -1.5448 H       1  UNL1        0.0279
     32 H           2.6227    0.0656   -0.7463 H       1  UNL1        0.0279
     33 H           1.0588   -2.3081    0.4083 H       1  UNL1        0.0444
     34 H           2.4188   -1.4104    1.1495 H       1  UNL1        0.0444
     35 H          -0.4858    2.3812    3.7304 H       1  UNL1        0.0643
     36 H           3.2934    4.2102    4.4800 H       1  UNL1        0.0623
     37 H           4.4349    2.1646    3.7213 H       1  UNL1        0.0633
@<TRIPOS>BOND
     1     1    23    1
     2     1    24    1
     3     1    25    1
     4     2     1    1
     5     2     8    1
     6     2     3    1
     7     2     5    1
     8     3     4    1
     9     3    26    1
    10     3    27    1
    11     4    28    1
    12     5     6    1
    13     5    29    1
    14     5    30    1
    15     6     7    1
    16     6    31    1
    17     6    32    1
    18     7     8    1
    19     7    33    1
    20     7    34    1
    21     9     8    1
    22     9    10    2
    23     9    11    2
    24     9    12    1
    25    12    21   ar
    26    12    13   ar
    27    13    14   ar
    28    13    35    1
    29    14    15    1
    30    14    19   ar
    31    15    16    1
    32    15    17    1
    33    15    18    1
    34    19    20   ar
    35    19    36    1
    36    20    21   ar
    37    20    37    1
    38    21    22    1
