@<TRIPOS>MOLECULE
ZINC000008220330
 43 44 0 0 0
SMALL
GASTEIGER

@<TRIPOS>ATOM
      1 C          -2.8829    1.4441   -2.5996 C.3     1  UNL1       -0.0362
      2 C          -1.5236    0.8202   -2.2772 C.3     1  UNL1        0.1191
      3 H          -1.6722   -0.1551   -1.8136 H       1  UNL1        0.0612
      4 C          -0.7318    0.6563   -3.5490 C.2     1  UNL1        0.2392
      5 O           0.3383    1.2135   -3.6731 O.2     1  UNL1       -0.2734
      6 N          -1.2128   -0.1094   -4.5483 N.am    1  UNL1       -0.2839
      7 C          -0.4318   -0.3486   -5.6845 C.ar    1  UNL1        0.0335
      8 C          -1.0349   -0.4781   -6.9287 C.ar    1  UNL1       -0.0399
      9 C          -0.2609   -0.7097   -8.0489 C.ar    1  UNL1       -0.0484
     10 C           1.1123   -0.8228   -7.9310 C.ar    1  UNL1        0.0549
     11 C           1.9533   -1.0808   -9.1545 C.3     1  UNL1        0.4174
     12 F           2.0908   -2.4601   -9.3435 F       1  UNL1       -0.1659
     13 F           1.3331   -0.5162  -10.2742 F       1  UNL1       -0.1659
     14 F           3.2168   -0.5056   -8.9817 F       1  UNL1       -0.1659
     15 C           1.7154   -0.6991   -6.6928 C.ar    1  UNL1       -0.0484
     16 C           0.9474   -0.4626   -5.5695 C.ar    1  UNL1       -0.0399
     17 N          -0.7920    1.6927   -1.3555 N.pl3   1  UNL1       -0.1960
     18 C          -0.5940    3.0377   -1.6758 C.ar    1  UNL1        0.0517
     19 C           0.6769    3.4968   -1.9978 C.ar    1  UNL1       -0.0391
     20 C           0.8683    4.8264   -2.3187 C.ar    1  UNL1       -0.0600
     21 C          -0.2016    5.7024   -2.3096 C.ar    1  UNL1       -0.0616
     22 C          -1.4672    5.2498   -1.9844 C.ar    1  UNL1       -0.0600
     23 C          -1.6665    3.9204   -1.6676 C.ar    1  UNL1       -0.0391
     24 S          -0.1997    1.0843    0.0663 S.O2    1  UNL1        0.0432
     25 C          -1.5348    1.3532    1.2647 C.3     1  UNL1        0.0738
     26 O          -0.0312   -0.3033   -0.1895 O.2     1  UNL1       -0.1552
     27 O           0.9139    1.9146    0.3659 O.2     1  UNL1       -0.1552
     28 H          -2.7342    2.4193   -3.0633 H       1  UNL1        0.0253
     29 H          -3.4272    0.7949   -3.2854 H       1  UNL1        0.0253
     30 H          -3.4555    1.5627   -1.6798 H       1  UNL1        0.0253
     31 H          -2.1003   -0.4948   -4.4800 H       1  UNL1        0.1549
     32 H          -2.1077   -0.3940   -7.0209 H       1  UNL1        0.0636
     33 H          -0.7289   -0.8068   -9.0173 H       1  UNL1        0.0624
     34 H           2.7881   -0.7878   -6.6039 H       1  UNL1        0.0624
     35 H           1.4191   -0.3660   -4.6027 H       1  UNL1        0.0636
     36 H           1.5137    2.8141   -2.0008 H       1  UNL1        0.0636
     37 H           1.8554    5.1832   -2.5731 H       1  UNL1        0.0618
     38 H          -0.0484    6.7426   -2.5566 H       1  UNL1        0.0618
     39 H          -2.3006    5.9367   -1.9779 H       1  UNL1        0.0618
     40 H          -2.6551    3.5676   -1.4135 H       1  UNL1        0.0636
     41 H          -1.1767    1.1167    2.2666 H       1  UNL1        0.0482
     42 H          -1.8510    2.3957    1.2285 H       1  UNL1        0.0482
     43 H          -2.3788    0.7087    1.0189 H       1  UNL1        0.0482
@<TRIPOS>BOND
     1     1     2    1
     2     1    28    1
     3     1    29    1
     4     1    30    1
     5     2     3    1
     6     2     4    1
     7     2    17    1
     8     4     5    2
     9     4     6   am
    10     6     7    1
    11     6    31    1
    12     7    16   ar
    13     7     8   ar
    14     8     9   ar
    15     8    32    1
    16     9    10   ar
    17     9    33    1
    18    10    11    1
    19    10    15   ar
    20    11    12    1
    21    11    13    1
    22    11    14    1
    23    15    16   ar
    24    15    34    1
    25    16    35    1
    26    17    18    1
    27    24    17    1
    28    18    23   ar
    29    18    19   ar
    30    19    20   ar
    31    19    36    1
    32    20    21   ar
    33    20    37    1
    34    21    22   ar
    35    21    38    1
    36    22    23   ar
    37    22    39    1
    38    23    40    1
    39    24    25    1
    40    24    26    2
    41    24    27    2
    42    25    41    1
    43    25    42    1
    44    25    43    1
