@<TRIPOS>MOLECULE
ZINC000032999965
 53 55 0 0 0
SMALL
GASTEIGER

@<TRIPOS>ATOM
      1 C          -0.0187    1.5258    0.0104 C.3     1  UNL1       -0.0466
      2 C           0.0021   -0.0041    0.0020 C.3     1  UNL1        0.0206
      3 H           0.5123   -0.3556   -0.8948 H       1  UNL1        0.0495
      4 C           0.7421   -0.5109    1.2415 C.3     1  UNL1       -0.0308
      5 C           0.8719   -2.0337    1.1708 C.3     1  UNL1       -0.0260
      6 C           1.6008   -2.5330    2.3917 C.ar    1  UNL1       -0.0473
      7 C           2.9789   -2.6409    2.3781 C.ar    1  UNL1       -0.0586
      8 C           3.6475   -3.0988    3.4980 C.ar    1  UNL1       -0.0615
      9 C           2.9380   -3.4484    4.6317 C.ar    1  UNL1       -0.0617
     10 C           1.5600   -3.3396    4.6457 C.ar    1  UNL1       -0.0615
     11 C           0.8918   -2.8776    3.5272 C.ar    1  UNL1       -0.0586
     12 N          -1.3723   -0.5112    0.0124 N.am    1  UNL1       -0.3124
     13 C          -2.0508   -0.6427   -1.1446 C.2     1  UNL1        0.2181
     14 O          -1.5236   -0.3413   -2.1944 O.2     1  UNL1       -0.2754
     15 C          -3.4646   -1.1643   -1.1339 C.3     1  UNL1        0.0554
     16 C          -3.9923   -1.2144   -2.5447 C.ar    1  UNL1        0.0004
     17 C          -3.8913   -2.2600   -3.3667 C.ar    1  UNL1       -0.0492
     18 C          -4.4525   -2.0743   -4.6184 C.ar    1  UNL1       -0.0278
     19 C          -5.0092   -0.8778   -4.8128 C.ar    1  UNL1        0.1429
     20 S          -5.7985   -0.3540   -6.2985 S.O2    1  UNL1        0.0671
     21 O          -5.7465    1.0661   -6.3013 O.2     1  UNL1       -0.1523
     22 O          -5.2597   -1.1535   -7.3424 O.2     1  UNL1       -0.1523
     23 N          -7.3983   -0.7632   -6.1743 N.3     1  UNL1       -0.1761
     24 C          -7.9923   -2.0383   -6.6018 C.3     1  UNL1        0.0206
     25 C          -9.5066   -1.9571   -6.3157 C.3     1  UNL1       -0.0373
     26 C          -9.7694   -0.4288   -6.2659 C.3     1  UNL1       -0.0373
     27 C          -8.4617    0.0883   -5.6108 C.3     1  UNL1        0.0206
     28 S          -4.8421    0.0941   -3.3564 S.2     1  UNL1       -0.0730
     29 H           1.0039    1.9031    0.0027 H       1  UNL1        0.0247
     30 H          -0.5459    1.8868   -0.8726 H       1  UNL1        0.0247
     31 H          -0.5289    1.8773    0.9072 H       1  UNL1        0.0247
     32 H           1.7350   -0.0630    1.2804 H       1  UNL1        0.0286
     33 H           0.1838   -0.2350    2.1361 H       1  UNL1        0.0286
     34 H          -0.1210   -2.4817    1.1320 H       1  UNL1        0.0314
     35 H           1.4302   -2.3096    0.2763 H       1  UNL1        0.0314
     36 H           3.5331   -2.3677    1.4923 H       1  UNL1        0.0620
     37 H           4.7241   -3.1838    3.4870 H       1  UNL1        0.0618
     38 H           3.4603   -3.8068    5.5064 H       1  UNL1        0.0618
     39 H           1.0057   -3.6130    5.5313 H       1  UNL1        0.0618
     40 H          -0.1848   -2.7926    3.5382 H       1  UNL1        0.0620
     41 H          -1.7940   -0.7522    0.8520 H       1  UNL1        0.1490
     42 H          -3.4790   -2.1662   -0.7048 H       1  UNL1        0.0412
     43 H          -4.0912   -0.5035   -0.5349 H       1  UNL1        0.0412
     44 H          -3.4080   -3.1816   -3.0778 H       1  UNL1        0.0626
     45 H          -4.4402   -2.8399   -5.3800 H       1  UNL1        0.0643
     46 H          -7.8240   -2.1864   -7.6685 H       1  UNL1        0.0444
     47 H          -7.5519   -2.8601   -6.0373 H       1  UNL1        0.0444
     48 H         -10.0766   -2.4204   -7.1210 H       1  UNL1        0.0278
     49 H          -9.7435   -2.4206   -5.3579 H       1  UNL1        0.0278
     50 H          -9.8956   -0.0212   -7.2689 H       1  UNL1        0.0278
     51 H         -10.6335   -0.2011   -5.6417 H       1  UNL1        0.0278
     52 H          -8.5102   -0.0231   -4.5276 H       1  UNL1        0.0444
     53 H          -8.2899    1.1309   -5.8785 H       1  UNL1        0.0444
@<TRIPOS>BOND
     1     1     2    1
     2     1    29    1
     3     1    30    1
     4     1    31    1
     5     2     3    1
     6     2     4    1
     7     2    12    1
     8     4     5    1
     9     4    32    1
    10     4    33    1
    11     5     6    1
    12     5    34    1
    13     5    35    1
    14     6    11   ar
    15     6     7   ar
    16     7     8   ar
    17     7    36    1
    18     8     9   ar
    19     8    37    1
    20     9    10   ar
    21     9    38    1
    22    10    11   ar
    23    10    39    1
    24    11    40    1
    25    12    13   am
    26    12    41    1
    27    13    14    2
    28    13    15    1
    29    15    16    1
    30    15    42    1
    31    15    43    1
    32    16    28   ar
    33    16    17   ar
    34    17    18   ar
    35    17    44    1
    36    18    19   ar
    37    18    45    1
    38    19    20    1
    39    19    28   ar
    40    20    21    2
    41    20    22    2
    42    20    23    1
    43    23    27    1
    44    23    24    1
    45    24    25    1
    46    24    46    1
    47    24    47    1
    48    25    26    1
    49    25    48    1
    50    25    49    1
    51    26    27    1
    52    26    50    1
    53    26    51    1
    54    27    52    1
    55    27    53    1
