@<TRIPOS>MOLECULE
ZINC000002960123
 53 54 0 0 0
SMALL
GASTEIGER

@<TRIPOS>ATOM
      1 C          -0.0187    1.5258    0.0104 C.3     1  UNL1       -0.0636
      2 C           0.0021   -0.0041    0.0020 C.3     1  UNL1       -0.0376
      3 C          -1.4333   -0.5336    0.0129 C.3     1  UNL1        0.0201
      4 H          -1.9701   -0.1109    0.8621 H       1  UNL1        0.0495
      5 C          -1.4133   -2.0590    0.1302 C.3     1  UNL1       -0.0466
      6 N          -2.1054   -0.1483   -1.2305 N.am    1  UNL1       -0.3116
      7 C          -3.4483   -0.0395   -1.2649 C.2     1  UNL1        0.2290
      8 O          -4.1004   -0.2606   -0.2665 O.2     1  UNL1       -0.2743
      9 C          -4.1397    0.3569   -2.5439 C.3     1  UNL1        0.0971
     10 N          -5.5870    0.4043   -2.3222 N.3     1  UNL1       -0.1635
     11 C          -6.2053    1.6156   -1.7775 C.3     1  UNL1        0.0460
     12 C          -6.4910    2.5815   -2.8985 C.ar    1  UNL1       -0.0317
     13 C          -5.5364    3.5088   -3.2720 C.ar    1  UNL1       -0.0573
     14 C          -5.7984    4.3948   -4.3002 C.ar    1  UNL1       -0.0615
     15 C          -7.0150    4.3531   -4.9553 C.ar    1  UNL1       -0.0617
     16 C          -7.9693    3.4251   -4.5824 C.ar    1  UNL1       -0.0615
     17 C          -7.7056    2.5363   -3.5570 C.ar    1  UNL1       -0.0573
     18 S          -6.5242   -0.9112   -2.6874 S.O2    1  UNL1        0.0616
     19 O          -7.8397   -0.4193   -2.9033 O.2     1  UNL1       -0.1528
     20 O          -5.8050   -1.6592   -3.6583 O.2     1  UNL1       -0.1528
     21 C          -6.5996   -1.9154   -1.2415 C.ar    1  UNL1        0.1057
     22 C          -5.6505   -2.8992   -1.0342 C.ar    1  UNL1       -0.0319
     23 C          -5.7075   -3.6878    0.0986 C.ar    1  UNL1       -0.0181
     24 C          -6.7178   -3.4916    1.0289 C.ar    1  UNL1        0.1202
     25 O          -6.7757   -4.2658    2.1443 O.3     1  UNL1       -0.4951
     26 C          -7.8433   -4.0077    3.0585 C.3     1  UNL1        0.0788
     27 C          -7.6686   -2.5035    0.8188 C.ar    1  UNL1       -0.0181
     28 C          -7.6045   -1.7144   -0.3133 C.ar    1  UNL1       -0.0319
     29 H           1.0039    1.9031    0.0027 H       1  UNL1        0.0230
     30 H          -0.5459    1.8868   -0.8726 H       1  UNL1        0.0230
     31 H          -0.5289    1.8773    0.9072 H       1  UNL1        0.0230
     32 H           0.5123   -0.3556   -0.8948 H       1  UNL1        0.0280
     33 H           0.5293   -0.3651    0.8851 H       1  UNL1        0.0280
     34 H          -0.9132   -2.3457    1.0553 H       1  UNL1        0.0247
     35 H          -2.4359   -2.4363    0.1380 H       1  UNL1        0.0247
     36 H          -0.8764   -2.4817   -0.7190 H       1  UNL1        0.0247
     37 H          -1.5839    0.0285   -2.0291 H       1  UNL1        0.1490
     38 H          -3.7878    1.3396   -2.8577 H       1  UNL1        0.0539
     39 H          -3.9148   -0.3745   -3.3202 H       1  UNL1        0.0539
     40 H          -7.1375    1.3541   -1.2768 H       1  UNL1        0.0493
     41 H          -5.5265    2.0798   -1.0621 H       1  UNL1        0.0493
     42 H          -4.5859    3.5414   -2.7601 H       1  UNL1        0.0621
     43 H          -5.0528    5.1198   -4.5915 H       1  UNL1        0.0618
     44 H          -7.2200    5.0457   -5.7582 H       1  UNL1        0.0618
     45 H          -8.9199    3.3927   -5.0940 H       1  UNL1        0.0618
     46 H          -8.4512    1.8113   -3.2657 H       1  UNL1        0.0621
     47 H          -4.8642   -3.0516   -1.7587 H       1  UNL1        0.0638
     48 H          -4.9663   -4.4567    0.2597 H       1  UNL1        0.0655
     49 H          -7.7727   -4.6937    3.9026 H       1  UNL1        0.0660
     50 H          -7.7736   -2.9810    3.4179 H       1  UNL1        0.0660
     51 H          -8.7978   -4.1514    2.5523 H       1  UNL1        0.0660
     52 H          -8.4563   -2.3490    1.5414 H       1  UNL1        0.0655
     53 H          -8.3443   -0.9447   -0.4771 H       1  UNL1        0.0638
@<TRIPOS>BOND
     1     1     2    1
     2     1    29    1
     3     1    30    1
     4     1    31    1
     5     2     3    1
     6     2    32    1
     7     2    33    1
     8     3     4    1
     9     3     5    1
    10     3     6    1
    11     5    34    1
    12     5    35    1
    13     5    36    1
    14     6     7   am
    15     6    37    1
    16     7     8    2
    17     7     9    1
    18     9    10    1
    19     9    38    1
    20     9    39    1
    21    10    11    1
    22    18    10    1
    23    11    12    1
    24    11    40    1
    25    11    41    1
    26    12    17   ar
    27    12    13   ar
    28    13    14   ar
    29    13    42    1
    30    14    15   ar
    31    14    43    1
    32    15    16   ar
    33    15    44    1
    34    16    17   ar
    35    16    45    1
    36    17    46    1
    37    18    19    2
    38    18    20    2
    39    18    21    1
    40    21    28   ar
    41    21    22   ar
    42    22    23   ar
    43    22    47    1
    44    23    24   ar
    45    23    48    1
    46    24    25    1
    47    24    27   ar
    48    25    26    1
    49    26    49    1
    50    26    50    1
    51    26    51    1
    52    27    28   ar
    53    27    52    1
    54    28    53    1
