@<TRIPOS>MOLECULE
ZINC000045944376
 59 61 0 0 0
SMALL
GASTEIGER

@<TRIPOS>ATOM
      1 C          -0.0187    1.5258    0.0104 C.3     1  UNL1       -0.0613
      2 C           0.0021   -0.0041    0.0020 C.3     1  UNL1       -0.0305
      3 C           0.7309   -0.5033    1.2229 C.ar    1  UNL1       -0.0475
      4 C           2.0970   -0.7095    1.1762 C.ar    1  UNL1       -0.0567
      5 C           2.7656   -1.1675    2.2961 C.ar    1  UNL1       -0.0351
      6 C           2.0682   -1.4187    3.4629 C.ar    1  UNL1        0.1055
      7 S           2.9203   -2.0029    4.8902 S.O2    1  UNL1        0.0609
      8 O           1.9540   -2.6726    5.6883 O.2     1  UNL1       -0.1528
      9 O           4.1080   -2.6265    4.4212 O.2     1  UNL1       -0.1528
     10 N           3.3996   -0.6735    5.7533 N.3     1  UNL1       -0.1737
     11 C           2.5183   -0.1088    6.7783 C.3     1  UNL1        0.0288
     12 C           2.8958   -0.6800    8.1466 C.3     1  UNL1        0.0385
     13 C           1.9892   -0.0991    9.2009 C.2     1  UNL1        0.2169
     14 O           1.1261    0.6937    8.8888 O.2     1  UNL1       -0.2756
     15 N           2.1376   -0.4606   10.4908 N.am    1  UNL1       -0.2990
     16 C           3.1816   -1.4158   10.8918 C.3     1  UNL1        0.0272
     17 C           2.5339   -2.5195   11.7347 C.3     1  UNL1        0.0118
     18 N           1.7898   -1.9102   12.8451 N.3     1  UNL1       -0.3130
     19 C           0.6876   -1.0734   12.3523 C.3     1  UNL1        0.0118
     20 C           1.2636    0.0942   11.5356 C.3     1  UNL1        0.0272
     21 C           4.7050   -0.0620    5.4920 C.3     1  UNL1        0.0468
     22 C           4.5381    1.0935    4.5030 C.3     1  UNL1        0.0731
     23 H           3.8575    1.8422    4.9084 H       1  UNL1        0.0609
     24 C           5.9135    1.7326    4.1856 C.3     1  UNL1       -0.0233
     25 C           5.6345    2.3546    2.7902 C.3     1  UNL1       -0.0271
     26 C           4.6521    1.3385    2.1690 C.3     1  UNL1        0.0482
     27 O           4.0495    0.6052    3.2436 O.3     1  UNL1       -0.3752
     28 C           0.7023   -1.2112    3.5100 C.ar    1  UNL1       -0.0351
     29 C           0.0343   -0.7496    2.3912 C.ar    1  UNL1       -0.0567
     30 H           1.0039    1.9031    0.0027 H       1  UNL1        0.0233
     31 H          -0.5459    1.8868   -0.8726 H       1  UNL1        0.0233
     32 H          -0.5289    1.8773    0.9072 H       1  UNL1        0.0233
     33 H          -1.0205   -0.3814    0.0098 H       1  UNL1        0.0311
     34 H           0.5123   -0.3556   -0.8948 H       1  UNL1        0.0311
     35 H           2.6419   -0.5132    0.2646 H       1  UNL1        0.0621
     36 H           3.8328   -1.3293    2.2593 H       1  UNL1        0.0637
     37 H           2.6279    0.9756    6.7945 H       1  UNL1        0.0448
     38 H           1.4840   -0.3660    6.5500 H       1  UNL1        0.0448
     39 H           2.7862   -1.7643    8.1304 H       1  UNL1        0.0371
     40 H           3.9301   -0.4227    8.3749 H       1  UNL1        0.0371
     41 H           3.6381   -1.8533   10.0040 H       1  UNL1        0.0477
     42 H           3.9406   -0.9022   11.4819 H       1  UNL1        0.0477
     43 H           1.8506   -3.0982   11.1132 H       1  UNL1        0.0439
     44 H           3.3084   -3.1753   12.1324 H       1  UNL1        0.0439
     45 H           1.4515   -2.6147   13.4834 H       1  UNL1        0.1220
     46 H           0.0300   -1.6723   11.7222 H       1  UNL1        0.0439
     47 H           0.1230   -0.6805   13.1979 H       1  UNL1        0.0439
     48 H           1.8367    0.7511   12.1899 H       1  UNL1        0.0477
     49 H           0.4506    0.6530   11.0720 H       1  UNL1        0.0477
     50 H           5.1226    0.3159    6.4252 H       1  UNL1        0.0469
     51 H           5.3776   -0.8082    5.0688 H       1  UNL1        0.0469
     52 H           6.1670    2.5018    4.9151 H       1  UNL1        0.0291
     53 H           6.6951    0.9749    4.1289 H       1  UNL1        0.0291
     54 H           5.1681    3.3348    2.8887 H       1  UNL1        0.0288
     55 H           6.5508    2.4171    2.2031 H       1  UNL1        0.0288
     56 H           3.8822    1.8656    1.6055 H       1  UNL1        0.0560
     57 H           5.1918    0.6568    1.5117 H       1  UNL1        0.0560
     58 H           0.1575   -1.4071    4.4217 H       1  UNL1        0.0637
     59 H          -1.0328   -0.5874    2.4281 H       1  UNL1        0.0621
@<TRIPOS>BOND
     1     1     2    1
     2     1    30    1
     3     1    31    1
     4     1    32    1
     5     2     3    1
     6     2    33    1
     7     2    34    1
     8     3    29   ar
     9     3     4   ar
    10     4     5   ar
    11     4    35    1
    12     5     6   ar
    13     5    36    1
    14     6     7    1
    15     6    28   ar
    16     7     8    2
    17     7     9    2
    18     7    10    1
    19    10    11    1
    20    10    21    1
    21    11    12    1
    22    11    37    1
    23    11    38    1
    24    12    13    1
    25    12    39    1
    26    12    40    1
    27    13    14    2
    28    13    15   am
    29    15    20    1
    30    15    16    1
    31    16    17    1
    32    16    41    1
    33    16    42    1
    34    17    18    1
    35    17    43    1
    36    17    44    1
    37    18    19    1
    38    18    45    1
    39    19    20    1
    40    19    46    1
    41    19    47    1
    42    20    48    1
    43    20    49    1
    44    21    22    1
    45    21    50    1
    46    21    51    1
    47    22    23    1
    48    22    27    1
    49    22    24    1
    50    24    25    1
    51    24    52    1
    52    24    53    1
    53    25    26    1
    54    25    54    1
    55    25    55    1
    56    26    27    1
    57    26    56    1
    58    26    57    1
    59    28    29   ar
    60    28    58    1
    61    29    59    1
