@<TRIPOS>MOLECULE
ZINC000009510254
 50 52 0 0 0
SMALL
GASTEIGER

@<TRIPOS>ATOM
      1 C          -0.0076    1.4925    0.0037 C.3     1  UNL1       -0.0380
      2 C           0.0162   -0.0143    0.0019 C.ar    1  UNL1       -0.0291
      3 C           0.0285   -0.7039   -1.1943 C.ar    1  UNL1       -0.0552
      4 C           0.0508   -2.0868   -1.1968 C.ar    1  UNL1       -0.0350
      5 C           0.0609   -2.7833   -0.0025 C.ar    1  UNL1        0.1072
      6 S           0.0899   -4.5450   -0.0113 S.O2    1  UNL1        0.0609
      7 O          -0.4491   -4.9614    1.2358 O.2     1  UNL1       -0.1528
      8 O          -0.4465   -4.9489   -1.2636 O.2     1  UNL1       -0.1528
      9 N           1.6796   -5.0091   -0.0119 N.3     1  UNL1       -0.1766
     10 C           2.4012   -5.2067   -1.2764 C.3     1  UNL1        0.0205
     11 C           3.6803   -4.3640   -1.2510 C.3     1  UNL1       -0.0385
     12 C           4.4927   -4.7147   -0.0023 C.3     1  UNL1       -0.0506
     13 C           3.6743   -4.3882    1.2491 C.3     1  UNL1       -0.0385
     14 C           2.3968   -5.2252    1.2520 C.3     1  UNL1        0.0205
     15 C           0.0487   -2.0995    1.1976 C.ar    1  UNL1       -0.0138
     16 C           0.0316   -0.7109    1.2037 C.ar    1  UNL1        0.0384
     17 N           0.0193   -0.0155    2.4169 N.am    1  UNL1       -0.2812
     18 C          -0.6423   -0.5211    3.4767 C.2     1  UNL1        0.2483
     19 O          -1.1590   -1.6190    3.4034 O.2     1  UNL1       -0.2699
     20 C          -0.7396    0.2594    4.7282 C.ar    1  UNL1        0.0370
     21 C          -0.1523    1.5229    4.8139 C.ar    1  UNL1       -0.0491
     22 C          -0.2468    2.2460    5.9849 C.ar    1  UNL1       -0.0494
     23 C          -0.9214    1.7214    7.0730 C.ar    1  UNL1        0.0549
     24 C          -1.0206    2.5172    8.3490 C.3     1  UNL1        0.4174
     25 F          -2.1710    3.3125    8.3144 F       1  UNL1       -0.1659
     26 F          -1.0904    1.6433    9.4393 F       1  UNL1       -0.1659
     27 F           0.1076    3.3344    8.4778 F       1  UNL1       -0.1659
     28 C          -1.5058    0.4697    6.9948 C.ar    1  UNL1       -0.0494
     29 C          -1.4241   -0.2613    5.8277 C.ar    1  UNL1       -0.0491
     30 H           1.0142    1.8721    0.0004 H       1  UNL1        0.0278
     31 H          -0.5303    1.8487   -0.8839 H       1  UNL1        0.0278
     32 H          -0.5238    1.8467    0.8960 H       1  UNL1        0.0278
     33 H           0.0203   -0.1629   -2.1290 H       1  UNL1        0.0621
     34 H           0.0600   -2.6238   -2.1338 H       1  UNL1        0.0637
     35 H           2.6595   -6.2596   -1.3891 H       1  UNL1        0.0444
     36 H           1.7725   -4.8914   -2.1091 H       1  UNL1        0.0444
     37 H           4.2727   -4.5749   -2.1414 H       1  UNL1        0.0278
     38 H           3.4187   -3.3061   -1.2296 H       1  UNL1        0.0278
     39 H           4.7328   -5.7778   -0.0120 H       1  UNL1        0.0266
     40 H           5.4153   -4.1343    0.0056 H       1  UNL1        0.0266
     41 H           4.2623   -4.6163    2.1381 H       1  UNL1        0.0278
     42 H           3.4127   -3.3301    1.2469 H       1  UNL1        0.0278
     43 H           1.7652   -4.9250    2.0881 H       1  UNL1        0.0444
     44 H           2.6519   -6.2809    1.3448 H       1  UNL1        0.0444
     45 H           0.0566   -2.6441    2.1302 H       1  UNL1        0.0656
     46 H           0.4869    0.8307    2.4957 H       1  UNL1        0.1551
     47 H           0.3752    1.9332    3.9655 H       1  UNL1        0.0625
     48 H           0.2071    3.2237    6.0525 H       1  UNL1        0.0623
     49 H          -2.0306    0.0659    7.8479 H       1  UNL1        0.0623
     50 H          -1.8806   -1.2382    5.7679 H       1  UNL1        0.0625
@<TRIPOS>BOND
     1     1     2    1
     2     1    30    1
     3     1    31    1
     4     1    32    1
     5     2    16   ar
     6     2     3   ar
     7     3     4   ar
     8     3    33    1
     9     4     5   ar
    10     4    34    1
    11     5     6    1
    12     5    15   ar
    13     6     7    2
    14     6     8    2
    15     6     9    1
    16     9    14    1
    17     9    10    1
    18    10    11    1
    19    10    35    1
    20    10    36    1
    21    11    12    1
    22    11    37    1
    23    11    38    1
    24    12    13    1
    25    12    39    1
    26    12    40    1
    27    13    14    1
    28    13    41    1
    29    13    42    1
    30    14    43    1
    31    14    44    1
    32    15    16   ar
    33    15    45    1
    34    16    17    1
    35    17    18   am
    36    17    46    1
    37    18    19    2
    38    18    20    1
    39    20    29   ar
    40    20    21   ar
    41    21    22   ar
    42    21    47    1
    43    22    23   ar
    44    22    48    1
    45    23    24    1
    46    23    28   ar
    47    24    25    1
    48    24    26    1
    49    24    27    1
    50    28    29   ar
    51    28    49    1
    52    29    50    1
