@<TRIPOS>MOLECULE
ZINC000059444200
 61 63 0 0 0
SMALL
GASTEIGER

@<TRIPOS>ATOM
      1 C          -0.0173    1.4248    0.0099 C.3     1  UNL1        0.0790
      2 O           0.0021   -0.0041    0.0020 O.3     1  UNL1       -0.4915
      3 C           0.6062   -0.6075   -1.0564 C.ar    1  UNL1        0.1616
      4 C           1.1727    0.1587   -2.0618 C.ar    1  UNL1       -0.0145
      5 C           1.7870   -0.4565   -3.1372 C.ar    1  UNL1       -0.0317
      6 C           1.8372   -1.8356   -3.2121 C.ar    1  UNL1        0.1092
      7 S           2.6209   -2.6134   -4.5852 S.O2    1  UNL1        0.0614
      8 O           2.0582   -3.9145   -4.6843 O.2     1  UNL1       -0.1528
      9 O           2.5936   -1.6718   -5.6491 O.2     1  UNL1       -0.1528
     10 N           4.2145   -2.8222   -4.1864 N.3     1  UNL1       -0.1675
     11 C           4.6477   -4.0530   -3.5202 C.3     1  UNL1        0.0250
     12 C           5.1573   -5.0467   -4.5660 C.3     1  UNL1       -0.0132
     13 C           5.6029   -6.3128   -3.8807 C.ar    1  UNL1       -0.0461
     14 C           6.9100   -6.4423   -3.4498 C.ar    1  UNL1       -0.0585
     15 C           7.3188   -7.6036   -2.8212 C.ar    1  UNL1       -0.0615
     16 C           6.4203   -8.6353   -2.6231 C.ar    1  UNL1       -0.0617
     17 C           5.1129   -8.5054   -3.0531 C.ar    1  UNL1       -0.0615
     18 C           4.7031   -7.3424   -3.6778 C.ar    1  UNL1       -0.0585
     19 C           5.1912   -1.7762   -4.4997 C.3     1  UNL1        0.0968
     20 C           5.3790   -0.8878   -3.2970 C.2     1  UNL1        0.2290
     21 O           4.7582   -1.1068   -2.2784 O.2     1  UNL1       -0.2743
     22 N           6.2369    0.1502   -3.3533 N.am    1  UNL1       -0.3114
     23 C           6.4195    1.0138   -2.1841 C.3     1  UNL1        0.0232
     24 C           7.5181    0.4370   -1.2675 C.3     1  UNL1       -0.0345
     25 C           8.8014    1.1945   -1.6897 C.3     1  UNL1       -0.0513
     26 C           8.2784    2.6263   -1.9647 C.3     1  UNL1       -0.0513
     27 C           6.9029    2.4058   -2.6274 C.3     1  UNL1       -0.0345
     28 C           1.2740   -2.6064   -2.2116 C.ar    1  UNL1        0.0101
     29 C           0.6617   -1.9965   -1.1290 C.ar    1  UNL1        0.1633
     30 O           0.1074   -2.7530   -0.1443 O.3     1  UNL1       -0.4914
     31 C           0.1928   -4.1720   -0.2904 C.3     1  UNL1        0.0790
     32 H           1.0053    1.8021    0.0021 H       1  UNL1        0.0660
     33 H          -0.5445    1.7859   -0.8732 H       1  UNL1        0.0660
     34 H          -0.5275    1.7763    0.9067 H       1  UNL1        0.0660
     35 H           1.1343    1.2366   -2.0060 H       1  UNL1        0.0656
     36 H           2.2283    0.1421   -3.9204 H       1  UNL1        0.0638
     37 H           5.4482   -3.8231   -2.8170 H       1  UNL1        0.0447
     38 H           3.8064   -4.4906   -2.9827 H       1  UNL1        0.0447
     39 H           4.3569   -5.2766   -5.2692 H       1  UNL1        0.0326
     40 H           5.9986   -4.6091   -5.1034 H       1  UNL1        0.0326
     41 H           7.6120   -5.6362   -3.6047 H       1  UNL1        0.0620
     42 H           8.3402   -7.7050   -2.4853 H       1  UNL1        0.0618
     43 H           6.7398   -9.5429   -2.1326 H       1  UNL1        0.0618
     44 H           4.4111   -9.3116   -2.8986 H       1  UNL1        0.0618
     45 H           3.6817   -7.2410   -4.0138 H       1  UNL1        0.0620
     46 H           6.1435   -2.2358   -4.7642 H       1  UNL1        0.0539
     47 H           4.8296   -1.1810   -5.3382 H       1  UNL1        0.0539
     48 H           6.7334    0.3253   -4.1680 H       1  UNL1        0.1490
     49 H           5.4820    1.1015   -1.6350 H       1  UNL1        0.0498
     50 H           7.2849    0.6351   -0.2213 H       1  UNL1        0.0283
     51 H           7.6336   -0.6334   -1.4375 H       1  UNL1        0.0283
     52 H           9.5314    1.1988   -0.8802 H       1  UNL1        0.0266
     53 H           9.2276    0.7588   -2.5933 H       1  UNL1        0.0266
     54 H           8.1680    3.1780   -1.0311 H       1  UNL1        0.0266
     55 H           8.9488    3.1535   -2.6434 H       1  UNL1        0.0266
     56 H           7.0017    2.4387   -3.7124 H       1  UNL1        0.0283
     57 H           6.2005    3.1691   -2.2926 H       1  UNL1        0.0283
     58 H           1.3146   -3.6839   -2.2726 H       1  UNL1        0.0675
     59 H           1.2403   -4.4703   -0.3345 H       1  UNL1        0.0660
     60 H          -0.2869   -4.6545    0.5611 H       1  UNL1        0.0660
     61 H          -0.3098   -4.4735   -1.2094 H       1  UNL1        0.0660
@<TRIPOS>BOND
     1     1     2    1
     2     1    32    1
     3     1    33    1
     4     1    34    1
     5     2     3    1
     6     3    29   ar
     7     3     4   ar
     8     4     5   ar
     9     4    35    1
    10     5     6   ar
    11     5    36    1
    12     6     7    1
    13     6    28   ar
    14     7     8    2
    15     7     9    2
    16     7    10    1
    17    10    11    1
    18    10    19    1
    19    11    12    1
    20    11    37    1
    21    11    38    1
    22    12    13    1
    23    12    39    1
    24    12    40    1
    25    13    18   ar
    26    13    14   ar
    27    14    15   ar
    28    14    41    1
    29    15    16   ar
    30    15    42    1
    31    16    17   ar
    32    16    43    1
    33    17    18   ar
    34    17    44    1
    35    18    45    1
    36    19    20    1
    37    19    46    1
    38    19    47    1
    39    20    21    2
    40    20    22   am
    41    22    23    1
    42    22    48    1
    43    23    27    1
    44    23    24    1
    45    23    49    1
    46    24    25    1
    47    24    50    1
    48    24    51    1
    49    25    26    1
    50    25    52    1
    51    25    53    1
    52    26    27    1
    53    26    54    1
    54    26    55    1
    55    27    56    1
    56    27    57    1
    57    28    29   ar
    58    28    58    1
    59    29    30    1
    60    30    31    1
    61    31    59    1
    62    31    60    1
    63    31    61    1
