@<TRIPOS>MOLECULE
ZINC000408621019
 61 62 0 0 0
SMALL
GASTEIGER

@<TRIPOS>ATOM
      1 C          -0.0173    1.4248    0.0099 C.3     1  UNL1        0.0365
      2 O           0.0021   -0.0041    0.0020 O.3     1  UNL1       -0.3812
      3 C           0.6518   -0.5703   -1.1379 C.3     1  UNL1        0.0654
      4 C           0.6131   -2.0967   -1.0411 C.3     1  UNL1        0.0437
      5 H           1.1847   -2.5275   -1.8631 H       1  UNL1        0.0518
      6 C           1.2226   -2.5389    0.2908 C.3     1  UNL1       -0.0445
      7 N          -0.7759   -2.5559   -1.1188 N.am    1  UNL1       -0.3094
      8 C          -1.0505   -3.8014   -1.5545 C.2     1  UNL1        0.2291
      9 O          -0.1478   -4.5420   -1.8822 O.2     1  UNL1       -0.2743
     10 C          -2.4794   -4.2737   -1.6345 C.3     1  UNL1        0.0968
     11 N          -2.5113   -5.6507   -2.1337 N.3     1  UNL1       -0.1675
     12 C          -2.3406   -6.7707   -1.2049 C.3     1  UNL1        0.0250
     13 C          -3.6906   -7.1226   -0.5767 C.3     1  UNL1       -0.0132
     14 C          -3.5150   -8.2747    0.3787 C.ar    1  UNL1       -0.0461
     15 C          -3.6423   -9.5743   -0.0748 C.ar    1  UNL1       -0.0585
     16 C          -3.4813  -10.6311    0.8016 C.ar    1  UNL1       -0.0615
     17 C          -3.1925  -10.3883    2.1315 C.ar    1  UNL1       -0.0617
     18 C          -3.0643   -9.0887    2.5848 C.ar    1  UNL1       -0.0615
     19 C          -3.2211   -8.0320    1.7075 C.ar    1  UNL1       -0.0585
     20 S          -2.7403   -5.9412   -3.7479 S.O2    1  UNL1        0.0614
     21 O          -3.2658   -7.2576   -3.8481 O.2     1  UNL1       -0.1528
     22 O          -3.4025   -4.7980   -4.2713 O.2     1  UNL1       -0.1528
     23 C          -1.1481   -5.9823   -4.5014 C.ar    1  UNL1        0.1092
     24 C          -0.5881   -4.8188   -4.9940 C.ar    1  UNL1       -0.0317
     25 C           0.6610   -4.8459   -5.5867 C.ar    1  UNL1       -0.0145
     26 C           1.3541   -6.0411   -5.6873 C.ar    1  UNL1        0.1616
     27 O           2.5828   -6.0694   -6.2694 O.3     1  UNL1       -0.4915
     28 C           3.0989   -4.8289   -6.7560 C.3     1  UNL1        0.0790
     29 C           0.7903   -7.2129   -5.1907 C.ar    1  UNL1        0.1633
     30 O           1.4670   -8.3886   -5.2866 O.3     1  UNL1       -0.4914
     31 C           0.8270   -9.5507   -4.7555 C.3     1  UNL1        0.0790
     32 C          -0.4591   -7.1778   -4.5935 C.ar    1  UNL1        0.0101
     33 H           1.0053    1.8021    0.0021 H       1  UNL1        0.0523
     34 H          -0.5445    1.7859   -0.8732 H       1  UNL1        0.0523
     35 H          -0.5275    1.7763    0.9067 H       1  UNL1        0.0523
     36 H           0.1385   -0.2506   -2.0447 H       1  UNL1        0.0578
     37 H           1.6883   -0.2344   -1.1694 H       1  UNL1        0.0578
     38 H           1.1950   -3.6264    0.3598 H       1  UNL1        0.0248
     39 H           2.2560   -2.1973    0.3487 H       1  UNL1        0.0248
     40 H           0.6509   -2.1081    1.1128 H       1  UNL1        0.0248
     41 H          -1.4979   -1.9635   -0.8568 H       1  UNL1        0.1491
     42 H          -2.9305   -4.2361   -0.6430 H       1  UNL1        0.0539
     43 H          -3.0379   -3.6284   -2.3125 H       1  UNL1        0.0539
     44 H          -1.9549   -7.6352   -1.7451 H       1  UNL1        0.0447
     45 H          -1.6376   -6.4888   -0.4210 H       1  UNL1        0.0447
     46 H          -4.0763   -6.2580   -0.0364 H       1  UNL1        0.0326
     47 H          -4.3936   -7.4045   -1.3606 H       1  UNL1        0.0326
     48 H          -3.8679   -9.7640   -1.1138 H       1  UNL1        0.0620
     49 H          -3.5814  -11.6464    0.4474 H       1  UNL1        0.0618
     50 H          -3.0674  -11.2140    2.8163 H       1  UNL1        0.0618
     51 H          -2.8391   -8.8990    3.6239 H       1  UNL1        0.0618
     52 H          -3.1210   -7.0167    2.0617 H       1  UNL1        0.0620
     53 H          -1.1274   -3.8863   -4.9163 H       1  UNL1        0.0638
     54 H           1.0961   -3.9354   -5.9715 H       1  UNL1        0.0656
     55 H           4.0831   -4.9921   -7.1952 H       1  UNL1        0.0660
     56 H           2.4254   -4.4270   -7.5129 H       1  UNL1        0.0660
     57 H           3.1820   -4.1214   -5.9310 H       1  UNL1        0.0660
     58 H          -0.1181   -9.7137   -5.2734 H       1  UNL1        0.0660
     59 H           1.4727  -10.4175   -4.8965 H       1  UNL1        0.0660
     60 H           0.6384   -9.4073   -3.6916 H       1  UNL1        0.0660
     61 H          -0.8988   -8.0856   -4.2074 H       1  UNL1        0.0675
@<TRIPOS>BOND
     1     1     2    1
     2     1    33    1
     3     1    34    1
     4     1    35    1
     5     2     3    1
     6     3     4    1
     7     3    36    1
     8     3    37    1
     9     4     5    1
    10     4     6    1
    11     4     7    1
    12     6    38    1
    13     6    39    1
    14     6    40    1
    15     7     8   am
    16     7    41    1
    17     8     9    2
    18     8    10    1
    19    10    11    1
    20    10    42    1
    21    10    43    1
    22    11    12    1
    23    20    11    1
    24    12    13    1
    25    12    44    1
    26    12    45    1
    27    13    14    1
    28    13    46    1
    29    13    47    1
    30    14    19   ar
    31    14    15   ar
    32    15    16   ar
    33    15    48    1
    34    16    17   ar
    35    16    49    1
    36    17    18   ar
    37    17    50    1
    38    18    19   ar
    39    18    51    1
    40    19    52    1
    41    20    21    2
    42    20    22    2
    43    20    23    1
    44    23    32   ar
    45    23    24   ar
    46    24    25   ar
    47    24    53    1
    48    25    26   ar
    49    25    54    1
    50    26    27    1
    51    26    29   ar
    52    27    28    1
    53    28    55    1
    54    28    56    1
    55    28    57    1
    56    29    30    1
    57    29    32   ar
    58    30    31    1
    59    31    58    1
    60    31    59    1
    61    31    60    1
    62    32    61    1
