@<TRIPOS>MOLECULE
ZINC000408601727
 53 54 0 0 0
SMALL
GASTEIGER

@<TRIPOS>ATOM
      1 C          -1.1906   -0.8907   -0.2831 C.3     1  UNL1       -0.0613
      2 C           0.0067    0.0164    0.0077 C.3     1  UNL1       -0.0305
      3 C           0.7345   -0.4878    1.2271 C.ar    1  UNL1       -0.0475
      4 C           0.3732   -0.0348    2.4827 C.ar    1  UNL1       -0.0568
      5 C           1.0383   -0.4950    3.6023 C.ar    1  UNL1       -0.0402
      6 C           2.0706   -1.4140    3.4661 C.ar    1  UNL1        0.0335
      7 N           2.7461   -1.8825    4.5984 N.am    1  UNL1       -0.2827
      8 C           2.0854   -2.0315    5.7636 C.2     1  UNL1        0.2548
      9 O           0.8868   -1.8516    5.8085 O.2     1  UNL1       -0.2717
     10 C           2.8360   -2.4215    7.0108 C.3     1  UNL1        0.1655
     11 O           1.9233   -2.5154    8.1063 O.3     1  UNL1       -0.4828
     12 C           2.4423   -2.8603    9.3140 C.ar    1  UNL1        0.1213
     13 C           3.8031   -3.0977    9.4433 C.ar    1  UNL1       -0.0181
     14 C           4.3283   -3.4476   10.6721 C.ar    1  UNL1       -0.0319
     15 C           3.4990   -3.5617   11.7726 C.ar    1  UNL1        0.1057
     16 S           4.1720   -4.0088   13.3384 S.O2    1  UNL1        0.0608
     17 O           3.1045   -4.5729   14.0877 O.2     1  UNL1       -0.1528
     18 O           5.3845   -4.7001   13.0714 O.2     1  UNL1       -0.1528
     19 N           4.5940   -2.6053   14.1094 N.3     1  UNL1       -0.1771
     20 C           3.6233   -1.9199   14.9663 C.3     1  UNL1        0.0177
     21 C           3.8316   -2.3514   16.4193 C.3     1  UNL1       -0.0507
     22 C           5.9379   -2.0490   13.9346 C.3     1  UNL1        0.0177
     23 C           5.9151   -1.0008   12.8203 C.3     1  UNL1       -0.0507
     24 C           2.1426   -3.3252   11.6465 C.ar    1  UNL1       -0.0319
     25 C           1.6132   -2.9699   10.4209 C.ar    1  UNL1       -0.0181
     26 C           2.4307   -1.8673    2.2038 C.ar    1  UNL1       -0.0402
     27 C           1.7584   -1.4068    1.0886 C.ar    1  UNL1       -0.0568
     28 H          -1.8667   -0.8852    0.5718 H       1  UNL1        0.0233
     29 H          -1.7170   -0.5260   -1.1651 H       1  UNL1        0.0233
     30 H          -0.8409   -1.9073   -0.4632 H       1  UNL1        0.0233
     31 H           0.6828    0.0109   -0.8472 H       1  UNL1        0.0311
     32 H          -0.3430    1.0330    0.1878 H       1  UNL1        0.0311
     33 H          -0.4296    0.6798    2.5880 H       1  UNL1        0.0621
     34 H           0.7562   -0.1403    4.5826 H       1  UNL1        0.0636
     35 H           3.6898   -2.1001    4.5446 H       1  UNL1        0.1549
     36 H           3.3196   -3.3862    6.8571 H       1  UNL1        0.0795
     37 H           3.5916   -1.6673    7.2310 H       1  UNL1        0.0795
     38 H           4.4511   -3.0093    8.5839 H       1  UNL1        0.0655
     39 H           5.3876   -3.6325   10.7732 H       1  UNL1        0.0638
     40 H           3.7631   -0.8421   14.8837 H       1  UNL1        0.0441
     41 H           2.6129   -2.1804   14.6512 H       1  UNL1        0.0441
     42 H           3.6918   -3.4292   16.5019 H       1  UNL1        0.0243
     43 H           4.8420   -2.0909   16.7344 H       1  UNL1        0.0243
     44 H           3.1094   -1.8414   17.0569 H       1  UNL1        0.0243
     45 H           6.2622   -1.5832   14.8651 H       1  UNL1        0.0441
     46 H           6.6299   -2.8478   13.6677 H       1  UNL1        0.0441
     47 H           5.5908   -1.4666   11.8898 H       1  UNL1        0.0243
     48 H           5.2231   -0.2020   13.0872 H       1  UNL1        0.0243
     49 H           6.9150   -0.5869   12.6903 H       1  UNL1        0.0243
     50 H           1.4970   -3.4147   12.5076 H       1  UNL1        0.0638
     51 H           0.5537   -2.7852   10.3229 H       1  UNL1        0.0655
     52 H           3.2330   -2.5819    2.0946 H       1  UNL1        0.0636
     53 H           2.0380   -1.7590    0.1066 H       1  UNL1        0.0621
@<TRIPOS>BOND
     1     1     2    1
     2     1    28    1
     3     1    29    1
     4     1    30    1
     5     2     3    1
     6     2    31    1
     7     2    32    1
     8     3    27   ar
     9     3     4   ar
    10     4     5   ar
    11     4    33    1
    12     5     6   ar
    13     5    34    1
    14     6     7    1
    15     6    26   ar
    16     7     8   am
    17     7    35    1
    18     8     9    2
    19     8    10    1
    20    10    11    1
    21    10    36    1
    22    10    37    1
    23    11    12    1
    24    12    25   ar
    25    12    13   ar
    26    13    14   ar
    27    13    38    1
    28    14    15   ar
    29    14    39    1
    30    15    16    1
    31    15    24   ar
    32    16    17    2
    33    16    18    2
    34    16    19    1
    35    19    20    1
    36    19    22    1
    37    20    21    1
    38    20    40    1
    39    20    41    1
    40    21    42    1
    41    21    43    1
    42    21    44    1
    43    22    23    1
    44    22    45    1
    45    22    46    1
    46    23    47    1
    47    23    48    1
    48    23    49    1
    49    24    25   ar
    50    24    50    1
    51    25    51    1
    52    26    27   ar
    53    26    52    1
    54    27    53    1
