@<TRIPOS>MOLECULE
ZINC000020886384
 49 50 0 0 0
SMALL
GASTEIGER

@<TRIPOS>ATOM
      1 C          -0.0741    1.5507    0.0327 C.3     1  UNL1       -0.0507
      2 C          -0.0626    0.0208    0.0303 C.3     1  UNL1        0.0177
      3 N           0.6242   -0.4605   -1.1709 N.3     1  UNL1       -0.1771
      4 C           2.0835   -0.5894   -1.1782 C.3     1  UNL1        0.0177
      5 C           2.4788   -1.9443   -0.5876 C.3     1  UNL1       -0.0507
      6 S          -0.2490   -0.8589   -2.5204 S.O2    1  UNL1        0.0608
      7 O           0.5521   -1.7679   -3.2628 O.2     1  UNL1       -0.1528
      8 O          -1.5619   -1.1668   -2.0723 O.2     1  UNL1       -0.1528
      9 C          -0.3870    0.5984   -3.5012 C.ar    1  UNL1        0.1055
     10 C          -1.4507    1.4608   -3.3119 C.ar    1  UNL1       -0.0351
     11 C          -1.5590    2.6040   -4.0814 C.ar    1  UNL1       -0.0567
     12 C          -0.6034    2.8851   -5.0399 C.ar    1  UNL1       -0.0468
     13 C          -0.7217    4.1312   -5.8791 C.3     1  UNL1       -0.0194
     14 C           0.0046    5.2848   -5.1845 C.3     1  UNL1        0.0282
     15 C          -0.1138    6.5309   -6.0237 C.2     1  UNL1        0.2175
     16 O          -0.7194    6.4994   -7.0741 O.2     1  UNL1       -0.2755
     17 N           0.4534    7.6803   -5.6071 N.am    1  UNL1       -0.2843
     18 C           0.4246    8.8131   -6.4290 C.ar    1  UNL1        0.0519
     19 C          -0.6741    9.0548   -7.2421 C.ar    1  UNL1       -0.0390
     20 C          -0.6998   10.1739   -8.0519 C.ar    1  UNL1       -0.0599
     21 C           0.3671   11.0531   -8.0533 C.ar    1  UNL1       -0.0603
     22 C           1.4639   10.8158   -7.2450 C.ar    1  UNL1       -0.0416
     23 C           1.4937    9.7014   -6.4284 C.ar    1  UNL1        0.0621
     24 CL          2.8703    9.4041   -5.4134 Cl      1  UNL1       -0.0816
     25 C           0.4610    2.0234   -5.2283 C.ar    1  UNL1       -0.0567
     26 C           0.5713    0.8821   -4.4562 C.ar    1  UNL1       -0.0351
     27 H           0.9507    1.9218    0.0269 H       1  UNL1        0.0243
     28 H          -0.5962    1.9115   -0.8535 H       1  UNL1        0.0243
     29 H          -0.5851    1.9088    0.9265 H       1  UNL1        0.0243
     30 H           0.4595   -0.3400    0.9165 H       1  UNL1        0.0441
     31 H          -1.0874   -0.3503    0.0362 H       1  UNL1        0.0441
     32 H           2.4494   -0.5189   -2.2026 H       1  UNL1        0.0441
     33 H           2.5219    0.2095   -0.5801 H       1  UNL1        0.0441
     34 H           2.0405   -2.7432   -1.1856 H       1  UNL1        0.0243
     35 H           3.5646   -2.0402   -0.5930 H       1  UNL1        0.0243
     36 H           2.1130   -2.0147    0.4368 H       1  UNL1        0.0243
     37 H          -2.1973    1.2411   -2.5630 H       1  UNL1        0.0637
     38 H          -2.3904    3.2774   -3.9340 H       1  UNL1        0.0621
     39 H          -0.2725    3.9550   -6.8565 H       1  UNL1        0.0318
     40 H          -1.7740    4.3868   -6.0037 H       1  UNL1        0.0318
     41 H          -0.4447    5.4610   -4.2071 H       1  UNL1        0.0362
     42 H           1.0568    5.0292   -5.0600 H       1  UNL1        0.0362
     43 H           0.8815    7.7227   -4.7377 H       1  UNL1        0.1548
     44 H          -1.5080    8.3684   -7.2421 H       1  UNL1        0.0636
     45 H          -1.5544   10.3620   -8.6849 H       1  UNL1        0.0618
     46 H           0.3441   11.9271   -8.6874 H       1  UNL1        0.0618
     47 H           2.2959   11.5044   -7.2487 H       1  UNL1        0.0633
     48 H           1.2078    2.2432   -5.9769 H       1  UNL1        0.0621
     49 H           1.4029    0.2089   -4.6033 H       1  UNL1        0.0637
@<TRIPOS>BOND
     1     1     2    1
     2     1    27    1
     3     1    28    1
     4     1    29    1
     5     2     3    1
     6     2    30    1
     7     2    31    1
     8     3     4    1
     9     6     3    1
    10     4     5    1
    11     4    32    1
    12     4    33    1
    13     5    34    1
    14     5    35    1
    15     5    36    1
    16     6     7    2
    17     6     8    2
    18     6     9    1
    19     9    26   ar
    20     9    10   ar
    21    10    11   ar
    22    10    37    1
    23    11    12   ar
    24    11    38    1
    25    12    13    1
    26    12    25   ar
    27    13    14    1
    28    13    39    1
    29    13    40    1
    30    14    15    1
    31    14    41    1
    32    14    42    1
    33    15    16    2
    34    15    17   am
    35    17    18    1
    36    17    43    1
    37    18    23   ar
    38    18    19   ar
    39    19    20   ar
    40    19    44    1
    41    20    21   ar
    42    20    45    1
    43    21    22   ar
    44    21    46    1
    45    22    23   ar
    46    22    47    1
    47    23    24    1
    48    25    26   ar
    49    25    48    1
    50    26    49    1
