@<TRIPOS>MOLECULE
ZINC000017097389
 47 48 0 0 0
SMALL
GASTEIGER

@<TRIPOS>ATOM
      1 C          -0.0173    1.4248    0.0099 C.3     1  UNL1        0.0365
      2 O           0.0021   -0.0041    0.0020 O.3     1  UNL1       -0.3814
      3 C           0.6518   -0.5703   -1.1379 C.3     1  UNL1        0.0628
      4 C           0.6131   -2.0967   -1.0411 C.3     1  UNL1        0.0350
      5 N          -0.7759   -2.5559   -1.1188 N.am    1  UNL1       -0.3120
      6 C          -1.0549   -3.8729   -1.0544 C.2     1  UNL1        0.2289
      7 O          -0.1561   -4.6779   -0.9320 O.2     1  UNL1       -0.2743
      8 C          -2.4837   -4.3452   -1.1344 C.3     1  UNL1        0.0971
      9 N          -2.5208   -5.8068   -1.0417 N.3     1  UNL1       -0.1635
     10 C          -2.5267   -6.4576    0.2708 C.3     1  UNL1        0.0460
     11 C          -3.9403   -6.5333    0.7876 C.ar    1  UNL1       -0.0316
     12 C          -4.4539   -5.4999    1.5488 C.ar    1  UNL1       -0.0559
     13 C          -5.7503   -5.5687    2.0231 C.ar    1  UNL1       -0.0431
     14 C          -6.5340   -6.6720    1.7360 C.ar    1  UNL1        0.0410
     15 CL         -8.1626   -6.7589    2.3309 Cl      1  UNL1       -0.0835
     16 C          -6.0195   -7.7060    0.9741 C.ar    1  UNL1       -0.0431
     17 C          -4.7248   -7.6335    0.4956 C.ar    1  UNL1       -0.0559
     18 S          -2.5560   -6.7233   -2.4205 S.O2    1  UNL1        0.0616
     19 O          -3.2659   -7.9105   -2.0952 O.2     1  UNL1       -0.1528
     20 O          -2.9427   -5.8502   -3.4729 O.2     1  UNL1       -0.1528
     21 C          -0.8986   -7.2129   -2.7639 C.ar    1  UNL1        0.1056
     22 C          -0.0921   -6.4151   -3.5538 C.ar    1  UNL1       -0.0340
     23 C           1.2081   -6.7986   -3.8235 C.ar    1  UNL1       -0.0415
     24 C           1.7024   -7.9812   -3.3027 C.ar    1  UNL1        0.0411
     25 CL          3.3356   -8.4632   -3.6405 Cl      1  UNL1       -0.0835
     26 C           0.8948   -8.7792   -2.5121 C.ar    1  UNL1       -0.0415
     27 C          -0.4035   -8.3918   -2.2385 C.ar    1  UNL1       -0.0340
     28 H           1.0053    1.8021    0.0021 H       1  UNL1        0.0523
     29 H          -0.5445    1.7859   -0.8732 H       1  UNL1        0.0523
     30 H          -0.5275    1.7763    0.9067 H       1  UNL1        0.0523
     31 H           0.1385   -0.2506   -2.0447 H       1  UNL1        0.0575
     32 H           1.6883   -0.2344   -1.1694 H       1  UNL1        0.0575
     33 H           1.1847   -2.5275   -1.8631 H       1  UNL1        0.0484
     34 H           1.0473   -2.4117   -0.0922 H       1  UNL1        0.0484
     35 H          -1.4948   -1.9121   -1.2167 H       1  UNL1        0.1488
     36 H          -3.0554   -3.9144   -0.3124 H       1  UNL1        0.0539
     37 H          -2.9180   -4.0302   -2.0832 H       1  UNL1        0.0539
     38 H          -2.1191   -7.4644    0.1790 H       1  UNL1        0.0493
     39 H          -1.9163   -5.8804    0.9653 H       1  UNL1        0.0493
     40 H          -3.8419   -4.6388    1.7732 H       1  UNL1        0.0621
     41 H          -6.1513   -4.7614    2.6181 H       1  UNL1        0.0632
     42 H          -6.6307   -8.5677    0.7499 H       1  UNL1        0.0632
     43 H          -4.3231   -8.4403   -0.0994 H       1  UNL1        0.0621
     44 H          -0.4781   -5.4921   -3.9606 H       1  UNL1        0.0637
     45 H           1.8380   -6.1754   -4.4410 H       1  UNL1        0.0633
     46 H           1.2800   -9.7026   -2.1055 H       1  UNL1        0.0633
     47 H          -1.0339   -9.0145   -1.6211 H       1  UNL1        0.0637
@<TRIPOS>BOND
     1     1     2    1
     2     1    28    1
     3     1    29    1
     4     1    30    1
     5     2     3    1
     6     3     4    1
     7     3    31    1
     8     3    32    1
     9     4     5    1
    10     4    33    1
    11     4    34    1
    12     5     6   am
    13     5    35    1
    14     6     7    2
    15     6     8    1
    16     8     9    1
    17     8    36    1
    18     8    37    1
    19     9    10    1
    20    18     9    1
    21    10    11    1
    22    10    38    1
    23    10    39    1
    24    11    17   ar
    25    11    12   ar
    26    12    13   ar
    27    12    40    1
    28    13    14   ar
    29    13    41    1
    30    14    15    1
    31    14    16   ar
    32    16    17   ar
    33    16    42    1
    34    17    43    1
    35    18    19    2
    36    18    20    2
    37    18    21    1
    38    21    27   ar
    39    21    22   ar
    40    22    23   ar
    41    22    44    1
    42    23    24   ar
    43    23    45    1
    44    24    25    1
    45    24    26   ar
    46    26    27   ar
    47    26    46    1
    48    27    47    1
