@<TRIPOS>MOLECULE
ZINC000065337334
 33 34 0 0 0
SMALL
GASTEIGER

@<TRIPOS>ATOM
      1 C          -0.0187    1.5258    0.0104 C.3     1  UNL1       -0.0439
      2 C           0.0021   -0.0041    0.0020 C.3     1  UNL1        0.0320
      3 C           0.7421   -0.5109    1.2415 C.3     1  UNL1       -0.0439
      4 C          -1.4333   -0.5336    0.0129 C.3     1  UNL1       -0.0439
      5 N           0.6878   -0.4765   -1.2033 N.am    1  UNL1       -0.2629
      6 C           0.1460   -1.2500   -2.1599 C.2     1  UNL1        0.2496
      7 O          -0.9966   -1.6647   -2.1536 O.2     1  UNL1       -0.2699
      8 C           1.1362   -1.5229   -3.2191 C.ar    1  UNL1        0.0447
      9 C           1.0680   -2.2591   -4.4030 C.ar    1  UNL1       -0.0376
     10 C           2.1749   -2.3452   -5.2223 C.ar    1  UNL1        0.0555
     11 C           2.1015   -3.1396   -6.5008 C.3     1  UNL1        0.4174
     12 F           1.6833   -2.3065   -7.5441 F       1  UNL1       -0.1659
     13 F           3.3648   -3.6616   -6.7987 F       1  UNL1       -0.1659
     14 F           1.1882   -4.1881   -6.3466 F       1  UNL1       -0.1659
     15 C           3.3516   -1.7054   -4.8760 C.ar    1  UNL1       -0.0497
     16 C           3.4270   -0.9730   -3.7028 C.ar    1  UNL1       -0.0533
     17 C           2.3295   -0.8808   -2.8790 C.ar    1  UNL1        0.0112
     18 C           2.0773   -0.1782   -1.5684 C.3     1  UNL1        0.1514
     19 H           2.7540   -0.5586   -0.8032 H       1  UNL1        0.0861
     20 O           2.2556    1.2310   -1.7244 O.3     1  UNL1       -0.3699
     21 H           1.0039    1.9031    0.0027 H       1  UNL1        0.0250
     22 H          -0.5459    1.8868   -0.8726 H       1  UNL1        0.0250
     23 H          -0.5289    1.8773    0.9072 H       1  UNL1        0.0250
     24 H           0.2319   -0.1594    2.1383 H       1  UNL1        0.0250
     25 H           0.7568   -1.6008    1.2356 H       1  UNL1        0.0250
     26 H           1.7647   -0.1336    1.2338 H       1  UNL1        0.0250
     27 H          -1.9605   -0.1726   -0.8702 H       1  UNL1        0.0250
     28 H          -1.4185   -1.6235    0.0069 H       1  UNL1        0.0250
     29 H          -1.9435   -0.1821    0.9097 H       1  UNL1        0.0250
     30 H           0.1514   -2.7604   -4.6768 H       1  UNL1        0.0631
     31 H           4.2140   -1.7776   -5.5221 H       1  UNL1        0.0623
     32 H           4.3471   -0.4749   -3.4349 H       1  UNL1        0.0622
     33 H           3.1493    1.4873   -1.9905 H       1  UNL1        0.2121
@<TRIPOS>BOND
     1     1     2    1
     2     1    21    1
     3     1    22    1
     4     1    23    1
     5     2     3    1
     6     2     4    1
     7     2     5    1
     8     3    24    1
     9     3    25    1
    10     3    26    1
    11     4    27    1
    12     4    28    1
    13     4    29    1
    14     5    18    1
    15     5     6   am
    16     6     7    2
    17     6     8    1
    18     8    17   ar
    19     8     9   ar
    20     9    10   ar
    21     9    30    1
    22    10    11    1
    23    10    15   ar
    24    11    12    1
    25    11    13    1
    26    11    14    1
    27    15    16   ar
    28    15    31    1
    29    16    17   ar
    30    16    32    1
    31    17    18    1
    32    18    19    1
    33    18    20    1
    34    20    33    1
