@<TRIPOS>MOLECULE
ZINC000009462080
 56 58 0 0 0
SMALL
GASTEIGER

@<TRIPOS>ATOM
      1 C          -0.0187    1.5258    0.0104 C.3     1  UNL1       -0.0466
      2 C           0.0021   -0.0041    0.0020 C.3     1  UNL1        0.0206
      3 H           0.5293   -0.3651    0.8851 H       1  UNL1        0.0495
      4 C          -1.4333   -0.5336    0.0129 C.3     1  UNL1       -0.0308
      5 C          -1.4133   -2.0590    0.1302 C.3     1  UNL1       -0.0260
      6 C          -2.8271   -2.5806    0.1409 C.ar    1  UNL1       -0.0473
      7 C          -3.5022   -2.7230    1.3388 C.ar    1  UNL1       -0.0586
      8 C          -4.7990   -3.2015    1.3486 C.ar    1  UNL1       -0.0615
      9 C          -5.4209   -3.5371    0.1605 C.ar    1  UNL1       -0.0617
     10 C          -4.7461   -3.3939   -1.0374 C.ar    1  UNL1       -0.0615
     11 C          -3.4508   -2.9114   -1.0476 C.ar    1  UNL1       -0.0586
     12 N           0.6878   -0.4765   -1.2033 N.am    1  UNL1       -0.3116
     13 C           2.0310   -0.5870   -1.2149 C.2     1  UNL1        0.2290
     14 O           2.6720   -0.2952   -0.2276 O.2     1  UNL1       -0.2743
     15 C           2.7363   -1.0730   -2.4548 C.3     1  UNL1        0.0973
     16 N           4.1811   -1.1040   -2.2143 N.3     1  UNL1       -0.1605
     17 C           4.7928   -2.2733   -1.5780 C.3     1  UNL1        0.0790
     18 C           5.0906   -3.3162   -2.6242 C.ar    1  UNL1        0.1205
     19 C           6.2372   -3.4290   -3.3185 C.ar    1  UNL1       -0.0194
     20 C           6.0843   -4.5361   -4.1846 C.ar    1  UNL1       -0.0236
     21 C           4.8535   -5.0335   -3.9678 C.ar    1  UNL1        0.0921
     22 O           4.2583   -4.2942   -3.0175 O.2     1  UNL1       -0.4665
     23 S           5.1228    0.1827   -2.6616 S.O2    1  UNL1        0.0617
     24 O           6.4404   -0.3229   -2.8274 O.2     1  UNL1       -0.1528
     25 O           4.4147    0.8594   -3.6911 O.2     1  UNL1       -0.1528
     26 C           5.1826    1.2871   -1.2899 C.ar    1  UNL1        0.1056
     27 C           4.2323    2.2830   -1.1628 C.ar    1  UNL1       -0.0340
     28 C           4.2786    3.1496   -0.0871 C.ar    1  UNL1       -0.0415
     29 C           5.2763    3.0202    0.8626 C.ar    1  UNL1        0.0411
     30 CL          5.3349    4.1079    2.2143 Cl      1  UNL1       -0.0835
     31 C           6.2271    2.0233    0.7348 C.ar    1  UNL1       -0.0415
     32 C           6.1764    1.1537   -0.3383 C.ar    1  UNL1       -0.0340
     33 H           1.0039    1.9031    0.0027 H       1  UNL1        0.0247
     34 H          -0.5459    1.8868   -0.8726 H       1  UNL1        0.0247
     35 H          -0.5289    1.8773    0.9072 H       1  UNL1        0.0247
     36 H          -1.9701   -0.1109    0.8621 H       1  UNL1        0.0286
     37 H          -1.9334   -0.2470   -0.9122 H       1  UNL1        0.0286
     38 H          -0.8764   -2.4817   -0.7190 H       1  UNL1        0.0314
     39 H          -0.9132   -2.3457    1.0553 H       1  UNL1        0.0314
     40 H          -3.0163   -2.4608    2.2670 H       1  UNL1        0.0620
     41 H          -5.3263   -3.3135    2.2845 H       1  UNL1        0.0618
     42 H          -6.4339   -3.9116    0.1683 H       1  UNL1        0.0618
     43 H          -5.2319   -3.6564   -1.9656 H       1  UNL1        0.0618
     44 H          -2.9236   -2.7994   -1.9835 H       1  UNL1        0.0620
     45 H           0.1751   -0.7099   -1.9930 H       1  UNL1        0.1490
     46 H           2.3875   -2.0757   -2.7018 H       1  UNL1        0.0539
     47 H           2.5204   -0.3987   -3.2836 H       1  UNL1        0.0539
     48 H           5.7195   -1.9764   -1.0868 H       1  UNL1        0.0524
     49 H           4.1059   -2.6857   -0.8390 H       1  UNL1        0.0524
     50 H           7.1073   -2.7952   -3.2315 H       1  UNL1        0.0652
     51 H           6.8154   -4.9103   -4.8859 H       1  UNL1        0.0649
     52 H           4.4191   -5.8854   -4.4698 H       1  UNL1        0.1029
     53 H           3.4537    2.3841   -1.9044 H       1  UNL1        0.0637
     54 H           3.5364    3.9278    0.0119 H       1  UNL1        0.0633
     55 H           7.0064    1.9220    1.4757 H       1  UNL1        0.0633
     56 H           6.9183    0.3753   -0.4379 H       1  UNL1        0.0637
@<TRIPOS>BOND
     1     1     2    1
     2     1    33    1
     3     1    34    1
     4     1    35    1
     5     2     3    1
     6     2     4    1
     7     2    12    1
     8     4     5    1
     9     4    36    1
    10     4    37    1
    11     5     6    1
    12     5    38    1
    13     5    39    1
    14     6    11   ar
    15     6     7   ar
    16     7     8   ar
    17     7    40    1
    18     8     9   ar
    19     8    41    1
    20     9    10   ar
    21     9    42    1
    22    10    11   ar
    23    10    43    1
    24    11    44    1
    25    12    13   am
    26    12    45    1
    27    13    14    2
    28    13    15    1
    29    15    16    1
    30    15    46    1
    31    15    47    1
    32    16    17    1
    33    23    16    1
    34    17    18    1
    35    17    48    1
    36    17    49    1
    37    18    22   ar
    38    18    19   ar
    39    19    20   ar
    40    19    50    1
    41    20    21   ar
    42    20    51    1
    43    21    22   ar
    44    21    52    1
    45    23    24    2
    46    23    25    2
    47    23    26    1
    48    26    32   ar
    49    26    27   ar
    50    27    28   ar
    51    27    53    1
    52    28    29   ar
    53    28    54    1
    54    29    30    1
    55    29    31   ar
    56    31    32   ar
    57    31    55    1
    58    32    56    1
