@<TRIPOS>MOLECULE
ZINC000237440759
 40 41 0 0 0
SMALL
GASTEIGER

@<TRIPOS>ATOM
      1 C          -0.0187    1.5258    0.0104 C.3     1  UNL1       -0.0389
      2 C           0.0021   -0.0041    0.0020 C.3     1  UNL1        0.1098
      3 H           0.5123   -0.3556   -0.8948 H       1  UNL1        0.0577
      4 C          -1.4117   -0.5257    0.0127 C.2     1  UNL1        0.3726
      5 O          -2.1181   -0.3926   -0.9721 O.co2   1  UNL1       -0.2446
      6 O          -1.8492   -1.0808    1.0062 O.co2   1  UNL1       -0.2446
      7 N           0.7126   -0.4907    1.1921 N.3     1  UNL1       -0.2875
      8 C           1.9624    0.2528    1.3998 C.3     1  UNL1        0.0141
      9 C           2.5795   -0.1566    2.7414 C.3     1  UNL1        0.0333
     10 N           2.7155   -1.6209    2.7657 N.3     1  UNL1       -0.1741
     11 S           4.1575   -2.3341    3.1585 S.O2    1  UNL1        0.0609
     12 O           4.1361   -3.6299    2.5758 O.2     1  UNL1       -0.1528
     13 O           5.1683   -1.3743    2.8822 O.2     1  UNL1       -0.1528
     14 C           4.1625   -2.5736    4.9041 C.ar    1  UNL1        0.1055
     15 C           4.6536   -1.5848    5.7360 C.ar    1  UNL1       -0.0348
     16 C           4.6576   -1.7727    7.1055 C.ar    1  UNL1       -0.0483
     17 C           4.1699   -2.9491    7.6432 C.ar    1  UNL1        0.0549
     18 C           4.1747   -3.1542    9.1362 C.3     1  UNL1        0.4174
     19 F           2.9726   -2.6835    9.6753 F       1  UNL1       -0.1659
     20 F           4.3105   -4.5175    9.4192 F       1  UNL1       -0.1659
     21 F           5.2453   -2.4519    9.6999 F       1  UNL1       -0.1659
     22 C           3.6775   -3.9373    6.8114 C.ar    1  UNL1       -0.0483
     23 C           3.6701   -3.7479    5.4421 C.ar    1  UNL1       -0.0348
     24 C           1.5367   -2.4349    2.4323 C.3     1  UNL1        0.0333
     25 C           0.9607   -1.9358    1.1029 C.3     1  UNL1        0.0141
     26 H           1.0039    1.9031    0.0027 H       1  UNL1        0.0250
     27 H          -0.5459    1.8868   -0.8726 H       1  UNL1        0.0250
     28 H          -0.5289    1.8773    0.9072 H       1  UNL1        0.0250
     29 H           2.6598    0.0243    0.5939 H       1  UNL1        0.0440
     30 H           1.7524    1.3223    1.4073 H       1  UNL1        0.0440
     31 H           3.5614    0.3042    2.8486 H       1  UNL1        0.0456
     32 H           1.9304    0.1644    3.5561 H       1  UNL1        0.0456
     33 H           5.0346   -0.6657    5.3159 H       1  UNL1        0.0637
     34 H           5.0419   -1.0005    7.7554 H       1  UNL1        0.0624
     35 H           3.2962   -4.8563    7.2315 H       1  UNL1        0.0624
     36 H           3.2854   -4.5199    4.7922 H       1  UNL1        0.0637
     37 H           1.8293   -3.4804    2.3351 H       1  UNL1        0.0456
     38 H           0.7874   -2.3329    3.2173 H       1  UNL1        0.0456
     39 H           0.0243   -2.4535    0.8950 H       1  UNL1        0.0440
     40 H           1.6721   -2.1339    0.3011 H       1  UNL1        0.0440
@<TRIPOS>BOND
     1     1     2    1
     2     1    26    1
     3     1    27    1
     4     1    28    1
     5     2     3    1
     6     2     4    1
     7     2     7    1
     8     4     5   ar
     9     4     6   ar
    10     7    25    1
    11     7     8    1
    12     8     9    1
    13     8    29    1
    14     8    30    1
    15     9    10    1
    16     9    31    1
    17     9    32    1
    18    11    10    1
    19    10    24    1
    20    11    12    2
    21    11    13    2
    22    11    14    1
    23    14    23   ar
    24    14    15   ar
    25    15    16   ar
    26    15    33    1
    27    16    17   ar
    28    16    34    1
    29    17    18    1
    30    17    22   ar
    31    18    19    1
    32    18    20    1
    33    18    21    1
    34    22    23   ar
    35    22    35    1
    36    23    36    1
    37    24    25    1
    38    24    37    1
    39    24    38    1
    40    25    39    1
    41    25    40    1
