@<TRIPOS>MOLECULE
ZINC000161799664
 37 38 0 0 0
SMALL
GASTEIGER

@<TRIPOS>ATOM
      1 C          -0.0187    1.5258    0.0104 C.3     1  UNL1       -0.0348
      2 C           0.0021   -0.0041    0.0020 C.3     1  UNL1        0.0776
      3 O           0.6695   -0.4656   -1.1742 O.3     1  UNL1       -0.3875
      4 C          -1.4334   -0.5345    0.0169 C.3     1  UNL1       -0.0218
      5 C          -1.4143   -2.0642   -0.0246 C.3     1  UNL1       -0.0359
      6 C          -0.6895   -2.5957    1.2160 C.3     1  UNL1        0.0207
      7 N           0.6414   -1.9773    1.2874 N.3     1  UNL1       -0.1739
      8 S           2.0011   -2.9138    1.4150 S.O2    1  UNL1        0.0609
      9 O           3.0007   -2.0920    2.0022 O.2     1  UNL1       -0.1528
     10 O           1.5848   -4.1516    1.9752 O.2     1  UNL1       -0.1528
     11 C           2.5466   -3.2672   -0.2227 C.ar    1  UNL1        0.1055
     12 C           2.0780   -4.3893   -0.8802 C.ar    1  UNL1       -0.0348
     13 C           2.5060   -4.6666   -2.1651 C.ar    1  UNL1       -0.0483
     14 C           3.4021   -3.8216   -2.7926 C.ar    1  UNL1        0.0549
     15 C           3.8690   -4.1242   -4.1932 C.3     1  UNL1        0.4174
     16 F           3.0094   -3.5144   -5.1132 F       1  UNL1       -0.1659
     17 F           5.1663   -3.6308   -4.3691 F       1  UNL1       -0.1659
     18 F           3.8648   -5.5082   -4.3973 F       1  UNL1       -0.1659
     19 C           3.8696   -2.6988   -2.1356 C.ar    1  UNL1       -0.0483
     20 C           3.4387   -2.4194   -0.8522 C.ar    1  UNL1       -0.0348
     21 C           0.7429   -0.5122    1.2429 C.3     1  UNL1        0.0491
     22 H           1.0039    1.9031    0.0027 H       1  UNL1        0.0258
     23 H          -0.5459    1.8868   -0.8726 H       1  UNL1        0.0258
     24 H          -0.5289    1.8773    0.9072 H       1  UNL1        0.0258
     25 H           0.2534   -0.1815   -1.9996 H       1  UNL1        0.2102
     26 H          -1.9339   -0.2021    0.9264 H       1  UNL1        0.0294
     27 H          -1.9701   -0.1543   -0.8523 H       1  UNL1        0.0294
     28 H          -2.4371   -2.4406   -0.0375 H       1  UNL1        0.0279
     29 H          -0.8922   -2.3973   -0.9216 H       1  UNL1        0.0279
     30 H          -1.2594   -2.3405    2.1094 H       1  UNL1        0.0444
     31 H          -0.5859   -3.6783    1.1429 H       1  UNL1        0.0444
     32 H           1.3779   -5.0495   -0.3900 H       1  UNL1        0.0637
     33 H           2.1404   -5.5437   -2.6785 H       1  UNL1        0.0624
     34 H           4.5695   -2.0384   -2.6261 H       1  UNL1        0.0624
     35 H           3.8040   -1.5422   -0.3389 H       1  UNL1        0.0637
     36 H           1.7916   -0.2201    1.1875 H       1  UNL1        0.0472
     37 H           0.2898   -0.0872    2.1385 H       1  UNL1        0.0472
@<TRIPOS>BOND
     1     1    22    1
     2     1    23    1
     3     1    24    1
     4     2     1    1
     5     2    21    1
     6     2     3    1
     7     2     4    1
     8     3    25    1
     9     4     5    1
    10     4    26    1
    11     4    27    1
    12     5     6    1
    13     5    28    1
    14     5    29    1
    15     6     7    1
    16     6    30    1
    17     6    31    1
    18     8     7    1
    19     7    21    1
    20     8     9    2
    21     8    10    2
    22     8    11    1
    23    11    20   ar
    24    11    12   ar
    25    12    13   ar
    26    12    32    1
    27    13    14   ar
    28    13    33    1
    29    14    15    1
    30    14    19   ar
    31    15    16    1
    32    15    17    1
    33    15    18    1
    34    19    20   ar
    35    19    34    1
    36    20    35    1
    37    21    36    1
    38    21    37    1
