@<TRIPOS>MOLECULE
ZINC000012917008
 63 66 0 0 0
SMALL
GASTEIGER

@<TRIPOS>ATOM
      1 O           2.0997    3.4327    1.9474 O.2     1  UNL1       -0.1528
      2 S           1.5762    3.4977    3.2668 S.O2    1  UNL1        0.0609
      3 O           2.1428    2.7936    4.3634 O.2     1  UNL1       -0.1528
      4 C           1.5730    5.2011    3.7175 C.ar    1  UNL1        0.1055
      5 C           1.5454    6.1753    2.7372 C.ar    1  UNL1       -0.0348
      6 C           1.5429    7.5117    3.0908 C.ar    1  UNL1       -0.0483
      7 C           1.5676    7.8738    4.4246 C.ar    1  UNL1        0.0549
      8 C           1.5654    9.3307    4.8100 C.3     1  UNL1        0.4174
      9 F           0.2460    9.7724    4.9561 F       1  UNL1       -0.1659
     10 F           2.2485    9.4940    6.0199 F       1  UNL1       -0.1659
     11 F           2.1995   10.0781    3.8118 F       1  UNL1       -0.1659
     12 C           1.5938    6.8996    5.4049 C.ar    1  UNL1       -0.0483
     13 C           1.5924    5.5632    5.0514 C.ar    1  UNL1       -0.0348
     14 N          -0.0045    3.0141    3.1671 N.3     1  UNL1       -0.1741
     15 C          -0.7051    2.4765    4.3433 C.3     1  UNL1        0.0333
     16 C          -2.0276    3.2325    4.5097 C.3     1  UNL1        0.0135
     17 N          -2.7854    3.1696    3.2529 N.3     1  UNL1       -0.2973
     18 C          -4.1316    3.7330    3.4211 C.3     1  UNL1        0.0272
     19 C          -5.0051    2.7443    4.1959 C.3     1  UNL1        0.0911
     20 H          -4.5301    2.5088    5.1483 H       1  UNL1        0.0629
     21 O          -5.1610    1.5465    3.4323 O.3     1  UNL1       -0.3882
     22 C          -6.3784    3.3686    4.4514 C.3     1  UNL1        0.0756
     23 O          -7.1535    2.4942    5.2739 O.3     1  UNL1       -0.3694
     24 C          -8.4949    2.9368    5.4902 C.3     1  UNL1        0.0840
     25 H          -8.8331    3.4978    4.6189 H       1  UNL1        0.0646
     26 C          -8.5343    3.8430    6.7189 C.3     1  UNL1       -0.0221
     27 C         -10.0007    4.1302    7.0620 C.3     1  UNL1       -0.0464
     28 C         -10.6328    2.8442    7.5906 C.3     1  UNL1       -0.0272
     29 C         -10.3750    1.7002    6.6451 C.ar    1  UNL1       -0.0417
     30 C         -11.1754    0.5715    6.7625 C.ar    1  UNL1       -0.0582
     31 C         -10.9856   -0.5122    5.9298 C.ar    1  UNL1       -0.0615
     32 C          -9.9906   -0.4752    4.9712 C.ar    1  UNL1       -0.0614
     33 C          -9.1959    0.6463    4.8514 C.ar    1  UNL1       -0.0559
     34 C          -9.3875    1.7395    5.6870 C.ar    1  UNL1       -0.0157
     35 C          -2.0659    3.8417    2.1627 C.3     1  UNL1        0.0135
     36 C          -0.7468    3.1164    1.9015 C.3     1  UNL1        0.0333
     37 H           1.5262    5.8924    1.6951 H       1  UNL1        0.0637
     38 H           1.5221    8.2729    2.3249 H       1  UNL1        0.0624
     39 H           1.6127    7.1825    6.4470 H       1  UNL1        0.0624
     40 H           1.6129    4.8020    5.8173 H       1  UNL1        0.0637
     41 H          -0.9059    1.4153    4.1965 H       1  UNL1        0.0456
     42 H          -0.0892    2.6160    5.2317 H       1  UNL1        0.0456
     43 H          -2.6102    2.7745    5.3091 H       1  UNL1        0.0440
     44 H          -1.8225    4.2735    4.7592 H       1  UNL1        0.0440
     45 H          -4.0667    4.6706    3.9732 H       1  UNL1        0.0453
     46 H          -4.5731    3.9179    2.4418 H       1  UNL1        0.0453
     47 H          -5.5781    1.6811    2.5704 H       1  UNL1        0.2099
     48 H          -6.2537    4.3266    4.9562 H       1  UNL1        0.0586
     49 H          -6.8900    3.5223    3.5014 H       1  UNL1        0.0586
     50 H          -8.0519    3.3434    7.5590 H       1  UNL1        0.0294
     51 H          -8.0182    4.7783    6.5019 H       1  UNL1        0.0294
     52 H         -10.0539    4.9062    7.8256 H       1  UNL1        0.0269
     53 H         -10.5296    4.4583    6.1671 H       1  UNL1        0.0269
     54 H         -10.2058    2.6081    8.5653 H       1  UNL1        0.0313
     55 H         -11.7081    2.9887    7.6953 H       1  UNL1        0.0313
     56 H         -11.9524    0.5415    7.5120 H       1  UNL1        0.0620
     57 H         -11.6123   -1.3865    6.0270 H       1  UNL1        0.0618
     58 H          -9.8354   -1.3215    4.3184 H       1  UNL1        0.0618
     59 H          -8.4182    0.6742    4.1025 H       1  UNL1        0.0621
     60 H          -2.6763    3.8255    1.2598 H       1  UNL1        0.0440
     61 H          -1.8603    4.8743    2.4448 H       1  UNL1        0.0440
     62 H          -0.1587    3.6764    1.1745 H       1  UNL1        0.0456
     63 H          -0.9486    2.1153    1.5203 H       1  UNL1        0.0456
@<TRIPOS>BOND
     1     1     2    2
     2     2     3    2
     3     2     4    1
     4     2    14    1
     5     4    13   ar
     6     4     5   ar
     7     5     6   ar
     8     5    37    1
     9     6     7   ar
    10     6    38    1
    11     7     8    1
    12     7    12   ar
    13     8     9    1
    14     8    10    1
    15     8    11    1
    16    12    13   ar
    17    12    39    1
    18    13    40    1
    19    14    36    1
    20    14    15    1
    21    15    16    1
    22    15    41    1
    23    15    42    1
    24    16    17    1
    25    16    43    1
    26    16    44    1
    27    17    18    1
    28    17    35    1
    29    18    19    1
    30    18    45    1
    31    18    46    1
    32    19    20    1
    33    19    21    1
    34    19    22    1
    35    21    47    1
    36    22    23    1
    37    22    48    1
    38    22    49    1
    39    23    24    1
    40    24    25    1
    41    24    34    1
    42    24    26    1
    43    26    27    1
    44    26    50    1
    45    26    51    1
    46    27    28    1
    47    27    52    1
    48    27    53    1
    49    28    29    1
    50    28    54    1
    51    28    55    1
    52    29    34   ar
    53    29    30   ar
    54    30    31   ar
    55    30    56    1
    56    31    32   ar
    57    31    57    1
    58    32    33   ar
    59    32    58    1
    60    33    34   ar
    61    33    59    1
    62    35    36    1
    63    35    60    1
    64    35    61    1
    65    36    62    1
    66    36    63    1
