@<TRIPOS>MOLECULE
ZINC000001367534
 48 50 0 0 0
SMALL
GASTEIGER

@<TRIPOS>ATOM
      1 C          -0.0184    1.5028    0.0103 C.3     1  UNL1       -0.0397
      2 C           0.0021   -0.0041    0.0020 C.ar    1  UNL1       -0.0503
      3 C           0.0057   -0.6887   -1.1989 C.ar    1  UNL1       -0.0570
      4 C           0.0245   -2.0709   -1.2065 C.ar    1  UNL1       -0.0351
      5 C           0.0400   -2.7685   -0.0132 C.ar    1  UNL1        0.1055
      6 S           0.0633   -4.5303   -0.0229 S.O2    1  UNL1        0.0609
      7 O          -0.4690   -4.9455    1.2275 O.2     1  UNL1       -0.1528
      8 O          -0.4824   -4.9319   -1.2719 O.2     1  UNL1       -0.1528
      9 N           1.6514   -4.9995   -0.0340 N.3     1  UNL1       -0.1740
     10 C           2.3637   -5.1986   -1.3039 C.3     1  UNL1        0.0349
     11 C           3.6251   -4.3262   -1.3004 C.3     1  UNL1        0.0349
     12 N           4.3476   -4.5504   -0.0404 N.3     1  UNL1       -0.1740
     13 S           5.9360   -5.0185   -0.0514 S.O2    1  UNL1        0.0609
     14 O           6.1720   -5.6667    1.1909 O.2     1  UNL1       -0.1528
     15 O           6.1620   -5.6415   -1.3084 O.2     1  UNL1       -0.1528
     16 C           6.9122   -3.5516   -0.0405 C.ar    1  UNL1        0.1055
     17 C           7.2855   -2.9609   -1.2332 C.ar    1  UNL1       -0.0348
     18 C           8.0513   -1.8101   -1.2246 C.ar    1  UNL1       -0.0483
     19 C           8.4434   -1.2497   -0.0233 C.ar    1  UNL1        0.0549
     20 C           9.2787    0.0046   -0.0140 C.3     1  UNL1        0.4174
     21 F           8.4393    1.1236    0.0062 F       1  UNL1       -0.1659
     22 F          10.0946    0.0131    1.1224 F       1  UNL1       -0.1659
     23 F          10.0775    0.0414   -1.1619 F       1  UNL1       -0.1659
     24 C           8.0689   -1.8396    1.1694 C.ar    1  UNL1       -0.0483
     25 C           7.2998   -2.9883    1.1609 C.ar    1  UNL1       -0.0348
     26 C           3.6353   -4.3513    1.2296 C.3     1  UNL1        0.0349
     27 C           2.3755   -5.2182    1.2261 C.3     1  UNL1        0.0349
     28 C           0.0378   -2.0839    1.1877 C.ar    1  UNL1       -0.0351
     29 C           0.0229   -0.7016    1.1953 C.ar    1  UNL1       -0.0570
     30 H           1.0042    1.8801    0.0026 H       1  UNL1        0.0278
     31 H          -0.5455    1.8639   -0.8728 H       1  UNL1        0.0278
     32 H          -0.5286    1.8543    0.9071 H       1  UNL1        0.0278
     33 H          -0.0064   -0.1436   -2.1312 H       1  UNL1        0.0621
     34 H           0.0266   -2.6057   -2.1448 H       1  UNL1        0.0637
     35 H           2.6443   -6.2469   -1.4055 H       1  UNL1        0.0457
     36 H           1.7200   -4.9075   -2.1340 H       1  UNL1        0.0457
     37 H           4.2622   -4.6007   -2.1412 H       1  UNL1        0.0457
     38 H           3.3438   -3.2760   -1.3789 H       1  UNL1        0.0457
     39 H           6.9793   -3.3988   -2.1718 H       1  UNL1        0.0637
     40 H           8.3437   -1.3491   -2.1565 H       1  UNL1        0.0624
     41 H           8.3748   -1.4016    2.1080 H       1  UNL1        0.0624
     42 H           7.0072   -3.4492    2.0927 H       1  UNL1        0.0637
     43 H           4.2791   -4.6423    2.0596 H       1  UNL1        0.0457
     44 H           3.3548   -3.3029    1.3312 H       1  UNL1        0.0457
     45 H           1.7395   -4.9427    2.0673 H       1  UNL1        0.0457
     46 H           2.6544   -6.2691    1.3039 H       1  UNL1        0.0457
     47 H           0.0503   -2.6289    2.1200 H       1  UNL1        0.0637
     48 H           0.0211   -0.1667    2.1335 H       1  UNL1        0.0621
@<TRIPOS>BOND
     1     1     2    1
     2     1    30    1
     3     1    31    1
     4     1    32    1
     5     2    29   ar
     6     2     3   ar
     7     3     4   ar
     8     3    33    1
     9     4     5   ar
    10     4    34    1
    11     5     6    1
    12     5    28   ar
    13     6     7    2
    14     6     8    2
    15     6     9    1
    16     9    27    1
    17     9    10    1
    18    10    11    1
    19    10    35    1
    20    10    36    1
    21    11    12    1
    22    11    37    1
    23    11    38    1
    24    13    12    1
    25    12    26    1
    26    13    14    2
    27    13    15    2
    28    13    16    1
    29    16    25   ar
    30    16    17   ar
    31    17    18   ar
    32    17    39    1
    33    18    19   ar
    34    18    40    1
    35    19    20    1
    36    19    24   ar
    37    20    21    1
    38    20    22    1
    39    20    23    1
    40    24    25   ar
    41    24    41    1
    42    25    42    1
    43    26    27    1
    44    26    43    1
    45    26    44    1
    46    27    45    1
    47    27    46    1
    48    28    29   ar
    49    28    47    1
    50    29    48    1
