@<TRIPOS>MOLECULE
ZINC000032926715
 46 47 0 0 0
SMALL
GASTEIGER

@<TRIPOS>ATOM
      1 C          -0.0187    1.5258    0.0104 C.3     1  UNL1       -0.0343
      2 C           0.0021   -0.0041    0.0020 C.3     1  UNL1        0.1495
      3 H           0.5293   -0.3651    0.8851 H       1  UNL1        0.0630
      4 C           0.7074   -0.4901   -1.2379 C.2     1  UNL1        0.2396
      5 O           0.0664   -0.7818   -2.2252 O.2     1  UNL1       -0.2735
      6 N           2.0506   -0.6005   -1.2495 N.am    1  UNL1       -0.2974
      7 C           2.8398   -0.2564   -0.0584 C.3     1  UNL1        0.0292
      8 C           3.7097   -1.4621    0.3183 C.3     1  UNL1        0.0363
      9 N           4.4114   -1.9293   -0.8855 N.3     1  UNL1       -0.1736
     10 S           6.0616   -2.0660   -0.8995 S.O2    1  UNL1        0.0610
     11 O           6.4594   -1.9859   -2.2613 O.2     1  UNL1       -0.1528
     12 O           6.5458   -1.1849    0.1048 O.2     1  UNL1       -0.1528
     13 C           6.4544   -3.6973   -0.3615 C.ar    1  UNL1        0.1060
     14 C           6.6442   -3.9546    0.9831 C.ar    1  UNL1       -0.0353
     15 C           6.9524   -5.2346    1.4052 C.ar    1  UNL1       -0.0594
     16 C           7.0702   -6.2570    0.4825 C.ar    1  UNL1       -0.0500
     17 C           6.8794   -5.9997   -0.8624 C.ar    1  UNL1        0.0567
     18 C           7.0083   -7.1143   -1.8684 C.3     1  UNL1        0.4175
     19 F           7.3235   -8.3058   -1.2065 F       1  UNL1       -0.1659
     20 F           5.7977   -7.2672   -2.5527 F       1  UNL1       -0.1659
     21 F           8.0234   -6.8047   -2.7800 F       1  UNL1       -0.1659
     22 C           6.5671   -4.7210   -1.2839 C.ar    1  UNL1       -0.0237
     23 C           3.6222   -2.2734   -2.0766 C.3     1  UNL1        0.0363
     24 C           2.7519   -1.0731   -2.4515 C.3     1  UNL1        0.0292
     25 S          -1.6997   -0.6320    0.0149 S.O2    1  UNL1       -0.0228
     26 C          -2.3897    0.1856    1.4799 C.3     1  UNL1        0.0553
     27 O          -2.3722   -0.1408   -1.1365 O.2     1  UNL1       -0.1739
     28 O          -1.6638   -2.0324    0.2528 O.2     1  UNL1       -0.1739
     29 H           1.0039    1.9031    0.0027 H       1  UNL1        0.0253
     30 H          -0.5459    1.8868   -0.8726 H       1  UNL1        0.0253
     31 H          -0.5289    1.8773    0.9072 H       1  UNL1        0.0253
     32 H           3.4770    0.6005   -0.2768 H       1  UNL1        0.0478
     33 H           2.1700   -0.0163    0.7674 H       1  UNL1        0.0478
     34 H           4.4372   -1.1664    1.0742 H       1  UNL1        0.0459
     35 H           3.0786   -2.2612    0.7072 H       1  UNL1        0.0459
     36 H           6.5521   -3.1558    1.7040 H       1  UNL1        0.0637
     37 H           7.1014   -5.4355    2.4558 H       1  UNL1        0.0618
     38 H           7.3116   -7.2567    0.8122 H       1  UNL1        0.0623
     39 H           6.4181   -4.5201   -2.3346 H       1  UNL1        0.0642
     40 H           4.2920   -2.5135   -2.9024 H       1  UNL1        0.0459
     41 H           2.9850   -3.1303   -1.8582 H       1  UNL1        0.0459
     42 H           2.0249   -1.3701   -3.2074 H       1  UNL1        0.0478
     43 H           3.3810   -0.2722   -2.8401 H       1  UNL1        0.0478
     44 H          -2.3337    1.2667    1.3528 H       1  UNL1        0.0464
     45 H          -3.4308   -0.1120    1.6055 H       1  UNL1        0.0464
     46 H          -1.8193   -0.1067    2.3615 H       1  UNL1        0.0464
@<TRIPOS>BOND
     1     1     2    1
     2     1    29    1
     3     1    30    1
     4     1    31    1
     5     2     3    1
     6     2     4    1
     7    25     2    1
     8     4     5    2
     9     4     6   am
    10     6    24    1
    11     6     7    1
    12     7     8    1
    13     7    32    1
    14     7    33    1
    15     8     9    1
    16     8    34    1
    17     8    35    1
    18    10     9    1
    19     9    23    1
    20    10    11    2
    21    10    12    2
    22    10    13    1
    23    13    22   ar
    24    13    14   ar
    25    14    15   ar
    26    14    36    1
    27    15    16   ar
    28    15    37    1
    29    16    17   ar
    30    16    38    1
    31    17    18    1
    32    17    22   ar
    33    18    19    1
    34    18    20    1
    35    18    21    1
    36    22    39    1
    37    23    24    1
    38    23    40    1
    39    23    41    1
    40    24    42    1
    41    24    43    1
    42    25    26    1
    43    25    27    2
    44    25    28    2
    45    26    44    1
    46    26    45    1
    47    26    46    1
