@<TRIPOS>MOLECULE
ZINC000000667517
 55 57 0 0 0
SMALL
GASTEIGER

@<TRIPOS>ATOM
      1 C          -0.0178    1.4608    0.0101 C.3     1  UNL1        0.0093
      2 N           0.0021   -0.0041    0.0020 N.3     1  UNL1       -0.1753
      3 C           0.0241   -0.7433    1.2666 C.3     1  UNL1        0.0452
      4 C          -1.3844   -0.9091    1.7762 C.ar    1  UNL1       -0.0317
      5 C          -1.9364    0.0485    2.6063 C.ar    1  UNL1       -0.0573
      6 C          -3.2284   -0.1036    3.0737 C.ar    1  UNL1       -0.0615
      7 C          -3.9686   -1.2132    2.7106 C.ar    1  UNL1       -0.0617
      8 C          -3.4169   -2.1704    1.8798 C.ar    1  UNL1       -0.0615
      9 C          -2.1264   -2.0161    1.4089 C.ar    1  UNL1       -0.0573
     10 S          -0.0004   -0.8243   -1.4366 S.O2    1  UNL1        0.0609
     11 O          -0.5247   -2.1160   -1.1611 O.2     1  UNL1       -0.1528
     12 O          -0.5660    0.0551   -2.3989 O.2     1  UNL1       -0.1528
     13 C           1.6816   -1.0597   -1.9056 C.ar    1  UNL1        0.1057
     14 C           2.3224   -0.1085   -2.6779 C.ar    1  UNL1       -0.0319
     15 C           3.6411   -0.2907   -3.0469 C.ar    1  UNL1       -0.0181
     16 C           4.3226   -1.4291   -2.6417 C.ar    1  UNL1        0.1213
     17 O           5.6201   -1.6104   -3.0031 O.3     1  UNL1       -0.4828
     18 C           6.2587   -2.8058   -2.5500 C.3     1  UNL1        0.1651
     19 C           7.6821   -2.8332   -3.0443 C.2     1  UNL1        0.2507
     20 O           8.1077   -1.9191   -3.7182 O.2     1  UNL1       -0.2721
     21 N           8.4821   -3.8735   -2.7374 N.am    1  UNL1       -0.3100
     22 C           9.8658   -3.9002   -3.2179 C.3     1  UNL1        0.0380
     23 C          10.5496   -5.1800   -2.7328 C.3     1  UNL1        0.0742
     24 H          10.0167   -6.0563   -3.1020 H       1  UNL1        0.0611
     25 C          12.0262   -5.2116   -3.2013 C.3     1  UNL1       -0.0231
     26 C          12.6546   -6.1470   -2.1325 C.3     1  UNL1       -0.0271
     27 C          11.8419   -5.7928   -0.8686 C.3     1  UNL1        0.0482
     28 O          10.6087   -5.2005   -1.2977 O.3     1  UNL1       -0.3750
     29 C           3.6776   -2.3818   -1.8665 C.ar    1  UNL1       -0.0181
     30 C           2.3603   -2.1926   -1.4960 C.ar    1  UNL1       -0.0319
     31 H           1.0048    1.8381    0.0023 H       1  UNL1        0.0408
     32 H          -0.5450    1.8219   -0.8730 H       1  UNL1        0.0408
     33 H          -0.5280    1.8123    0.9069 H       1  UNL1        0.0408
     34 H           0.4703   -1.7247    1.1061 H       1  UNL1        0.0493
     35 H           0.6131   -0.1919    1.9996 H       1  UNL1        0.0493
     36 H          -1.3581    0.9154    2.8899 H       1  UNL1        0.0621
     37 H          -3.6594    0.6443    3.7228 H       1  UNL1        0.0618
     38 H          -4.9777   -1.3324    3.0763 H       1  UNL1        0.0618
     39 H          -3.9951   -3.0375    1.5964 H       1  UNL1        0.0618
     40 H          -1.6954   -2.7640    0.7598 H       1  UNL1        0.0621
     41 H           1.7914    0.7776   -2.9931 H       1  UNL1        0.0638
     42 H           4.1409    0.4522   -3.6507 H       1  UNL1        0.0655
     43 H           6.2520   -2.8307   -1.4603 H       1  UNL1        0.0795
     44 H           5.7231   -3.6729   -2.9365 H       1  UNL1        0.0795
     45 H           8.1417   -4.6046   -2.1984 H       1  UNL1        0.1489
     46 H           9.8725   -3.8753   -4.3076 H       1  UNL1        0.0487
     47 H          10.4014   -3.0331   -2.8314 H       1  UNL1        0.0487
     48 H          12.1126   -5.6416   -4.1992 H       1  UNL1        0.0291
     49 H          12.4715   -4.2175   -3.1640 H       1  UNL1        0.0291
     50 H          12.5151   -7.1937   -2.4028 H       1  UNL1        0.0288
     51 H          13.7111   -5.9193   -1.9908 H       1  UNL1        0.0288
     52 H          11.6365   -6.6970   -0.2957 H       1  UNL1        0.0560
     53 H          12.4002   -5.0845   -0.2565 H       1  UNL1        0.0560
     54 H           4.2059   -3.2690   -1.5500 H       1  UNL1        0.0655
     55 H           1.8578   -2.9338   -0.8923 H       1  UNL1        0.0638
@<TRIPOS>BOND
     1     1     2    1
     2     1    31    1
     3     1    32    1
     4     1    33    1
     5     2     3    1
     6    10     2    1
     7     3     4    1
     8     3    34    1
     9     3    35    1
    10     4     9   ar
    11     4     5   ar
    12     5     6   ar
    13     5    36    1
    14     6     7   ar
    15     6    37    1
    16     7     8   ar
    17     7    38    1
    18     8     9   ar
    19     8    39    1
    20     9    40    1
    21    10    11    2
    22    10    12    2
    23    10    13    1
    24    13    30   ar
    25    13    14   ar
    26    14    15   ar
    27    14    41    1
    28    15    16   ar
    29    15    42    1
    30    16    17    1
    31    16    29   ar
    32    17    18    1
    33    18    19    1
    34    18    43    1
    35    18    44    1
    36    19    20    2
    37    19    21   am
    38    21    22    1
    39    21    45    1
    40    22    23    1
    41    22    46    1
    42    22    47    1
    43    23    24    1
    44    23    28    1
    45    23    25    1
    46    25    26    1
    47    25    48    1
    48    25    49    1
    49    26    27    1
    50    26    50    1
    51    26    51    1
    52    27    28    1
    53    27    52    1
    54    27    53    1
    55    29    30   ar
    56    29    54    1
    57    30    55    1
