@<TRIPOS>MOLECULE
ZINC000026569933
 47 49 0 0 0
SMALL
GASTEIGER

@<TRIPOS>ATOM
      1 C           3.5188   -9.6456    2.5575 C.3     1  UNL1       -0.0334
      2 C           3.4896   -8.2823    1.9159 C.ar    1  UNL1       -0.0114
      3 C           4.5177   -7.7028    1.2942 C.ar    1  UNL1       -0.0499
      4 C           4.2548   -6.4446    0.7806 C.ar    1  UNL1       -0.0278
      5 C           3.0131   -6.0022    0.9853 C.ar    1  UNL1        0.1429
      6 S           2.3885   -4.4444    0.4487 S.O2    1  UNL1        0.0678
      7 O           1.2140   -4.1993    1.2101 O.2     1  UNL1       -0.1523
      8 O           3.4968   -3.5555    0.4216 O.2     1  UNL1       -0.1523
      9 N           1.8976   -4.6279   -1.1222 N.3     1  UNL1       -0.1643
     10 C           0.5824   -5.1313   -1.5581 C.3     1  UNL1        0.0214
     11 C           0.3848   -4.5461   -2.9787 C.3     1  UNL1       -0.0366
     12 C           1.8264   -4.6169   -3.5481 C.3     1  UNL1       -0.0260
     13 C           2.6990   -4.3097   -2.3130 C.3     1  UNL1        0.1078
     14 H           3.5944   -4.9311   -2.3279 H       1  UNL1        0.0575
     15 C           3.0861   -2.8533   -2.3084 C.2     1  UNL1        0.2322
     16 O           2.4231   -2.0516   -1.6851 O.2     1  UNL1       -0.2740
     17 N           4.1692   -2.4417   -2.9969 N.am    1  UNL1       -0.3099
     18 C           4.5455   -1.0259   -2.9924 C.3     1  UNL1        0.0369
     19 C           5.7823   -0.8322   -3.8315 C.ar    1  UNL1       -0.0303
     20 C           7.0333   -0.9338   -3.2523 C.ar    1  UNL1       -0.0565
     21 C           8.1678   -0.7561   -4.0220 C.ar    1  UNL1       -0.0498
     22 C           8.0511   -0.4773   -5.3709 C.ar    1  UNL1        0.0548
     23 C           9.2878   -0.2831   -6.2099 C.3     1  UNL1        0.4174
     24 F           9.6911   -1.5142   -6.7381 F       1  UNL1       -0.1659
     25 F           9.0078    0.6036   -7.2551 F       1  UNL1       -0.1659
     26 F          10.3128    0.2415   -5.4153 F       1  UNL1       -0.1659
     27 C           6.8001   -0.3771   -5.9504 C.ar    1  UNL1       -0.0498
     28 C           5.6657   -0.5586   -5.1815 C.ar    1  UNL1       -0.0565
     29 S           2.0925   -7.2150    1.8657 S.2     1  UNL1       -0.0738
     30 H           2.5410   -9.8668    2.9853 H       1  UNL1        0.0283
     31 H           3.7646  -10.3957    1.8058 H       1  UNL1        0.0283
     32 H           4.2719   -9.6603    3.3453 H       1  UNL1        0.0283
     33 H           5.4823   -8.1792    1.1990 H       1  UNL1        0.0626
     34 H           4.9987   -5.8648    0.2544 H       1  UNL1        0.0643
     35 H           0.5859   -6.2208   -1.5937 H       1  UNL1        0.0444
     36 H          -0.2009   -4.7754   -0.8889 H       1  UNL1        0.0444
     37 H          -0.2972   -5.1629   -3.5640 H       1  UNL1        0.0279
     38 H           0.0336   -3.5153   -2.9313 H       1  UNL1        0.0279
     39 H           2.0389   -5.6127   -3.9370 H       1  UNL1        0.0286
     40 H           1.9739   -3.8609   -4.3193 H       1  UNL1        0.0286
     41 H           4.6995   -3.0830   -3.4954 H       1  UNL1        0.1491
     42 H           3.7300   -0.4319   -3.4048 H       1  UNL1        0.0512
     43 H           4.7466   -0.7066   -1.9698 H       1  UNL1        0.0512
     44 H           7.1244   -1.1516   -2.1985 H       1  UNL1        0.0621
     45 H           9.1452   -0.8347   -3.5694 H       1  UNL1        0.0623
     46 H           6.7090   -0.1597   -7.0043 H       1  UNL1        0.0623
     47 H           4.6883   -0.4803   -5.6342 H       1  UNL1        0.0621
@<TRIPOS>BOND
     1     1     2    1
     2     1    30    1
     3     1    31    1
     4     1    32    1
     5     2    29   ar
     6     2     3   ar
     7     3     4   ar
     8     3    33    1
     9     4     5   ar
    10     4    34    1
    11     5     6    1
    12     5    29   ar
    13     6     7    2
    14     6     8    2
    15     6     9    1
    16     9    13    1
    17     9    10    1
    18    10    11    1
    19    10    35    1
    20    10    36    1
    21    11    12    1
    22    11    37    1
    23    11    38    1
    24    12    13    1
    25    12    39    1
    26    12    40    1
    27    13    14    1
    28    13    15    1
    29    15    16    2
    30    15    17   am
    31    17    18    1
    32    17    41    1
    33    18    19    1
    34    18    42    1
    35    18    43    1
    36    19    28   ar
    37    19    20   ar
    38    20    21   ar
    39    20    44    1
    40    21    22   ar
    41    21    45    1
    42    22    23    1
    43    22    27   ar
    44    23    24    1
    45    23    25    1
    46    23    26    1
    47    27    28   ar
    48    27    46    1
    49    28    47    1
