@<TRIPOS>MOLECULE
ZINC000008720277
 59 60 0 0 0
SMALL
GASTEIGER

@<TRIPOS>ATOM
      1 C          -0.2724    1.8144    0.2198 C.3     1  UNL1       -0.0307
      2 C          -0.1407    0.2926    0.3070 C.3     1  UNL1        0.0869
      3 O          -1.4355   -0.3040    0.2099 O.3     1  UNL1       -0.4903
      4 C          -1.4961   -1.6614    0.2703 C.ar    1  UNL1        0.1428
      5 C          -0.3363   -2.4016    0.4254 C.ar    1  UNL1       -0.0162
      6 C          -0.3994   -3.7821    0.4872 C.ar    1  UNL1       -0.0318
      7 C          -1.6184   -4.4267    0.3939 C.ar    1  UNL1        0.1075
      8 S          -1.6909   -6.1854    0.4734 S.O2    1  UNL1        0.0609
      9 O          -2.8940   -6.5674   -0.1791 O.2     1  UNL1       -0.1528
     10 O          -0.4097   -6.6580    0.0803 O.2     1  UNL1       -0.1528
     11 N          -1.8723   -6.5970    2.0672 N.3     1  UNL1       -0.1771
     12 C          -3.2136   -6.7331    2.6405 C.3     1  UNL1        0.0177
     13 C          -3.6431   -8.2007    2.5906 C.3     1  UNL1       -0.0507
     14 C          -0.6915   -6.8251    2.9038 C.3     1  UNL1        0.0177
     15 C          -0.3418   -5.5383    3.6541 C.3     1  UNL1       -0.0507
     16 C          -2.7812   -3.6949    0.2389 C.ar    1  UNL1       -0.0094
     17 C          -2.7262   -2.3103    0.1819 C.ar    1  UNL1        0.0914
     18 N          -3.9019   -1.5672    0.0255 N.pl3   1  UNL1       -0.2127
     19 S          -5.3052   -2.0770    0.7418 S.O2    1  UNL1        0.0725
     20 O          -6.2664   -1.0556    0.5135 O.2     1  UNL1       -0.1500
     21 O          -5.4943   -3.4264    0.3385 O.2     1  UNL1       -0.1500
     22 C          -5.0204   -2.1126    2.4803 C.ar    1  UNL1        0.1085
     23 C          -4.5335   -3.2603    3.0776 C.ar    1  UNL1       -0.0348
     24 C          -4.3100   -3.2882    4.4414 C.ar    1  UNL1       -0.0567
     25 C          -4.5730   -2.1683    5.2080 C.ar    1  UNL1       -0.0467
     26 C          -4.3299   -2.1989    6.6949 C.3     1  UNL1       -0.0175
     27 C          -2.8974   -1.7476    6.9868 C.3     1  UNL1        0.0531
     28 C          -2.6542   -1.7782    8.4738 C.2     1  UNL1        0.3563
     29 O          -3.5442   -2.1285    9.2299 O.co2   1  UNL1       -0.2464
     30 O          -1.5676   -1.4527    8.9206 O.co2   1  UNL1       -0.2464
     31 C          -5.0586   -1.0202    4.6105 C.ar    1  UNL1       -0.0567
     32 C          -5.2784   -0.9911    3.2461 C.ar    1  UNL1       -0.0348
     33 H           0.7153    2.2695    0.2940 H       1  UNL1        0.0262
     34 H          -0.7269    2.0858   -0.7330 H       1  UNL1        0.0262
     35 H          -0.8995    2.1722    1.0364 H       1  UNL1        0.0262
     36 H           0.4864   -0.0652   -0.5096 H       1  UNL1        0.0694
     37 H           0.3138    0.0213    1.2599 H       1  UNL1        0.0694
     38 H           0.6180   -1.9011    0.4979 H       1  UNL1        0.0655
     39 H           0.5063   -4.3577    0.6082 H       1  UNL1        0.0638
     40 H          -3.2024   -6.3927    3.6759 H       1  UNL1        0.0441
     41 H          -3.9168   -6.1291    2.0671 H       1  UNL1        0.0441
     42 H          -4.6410   -8.3020    3.0172 H       1  UNL1        0.0243
     43 H          -3.6543   -8.5411    1.5552 H       1  UNL1        0.0243
     44 H          -2.9399   -8.8047    3.1641 H       1  UNL1        0.0243
     45 H          -0.9023   -7.6181    3.6213 H       1  UNL1        0.0441
     46 H           0.1486   -7.1184    2.2744 H       1  UNL1        0.0441
     47 H          -0.1311   -4.7453    2.9366 H       1  UNL1        0.0243
     48 H          -1.1820   -5.2450    4.2835 H       1  UNL1        0.0243
     49 H           0.5367   -5.7080    4.2765 H       1  UNL1        0.0243
     50 H          -3.7325   -4.2011    0.1663 H       1  UNL1        0.0657
     51 H          -3.8947   -0.7535   -0.5025 H       1  UNL1        0.1738
     52 H          -4.3281   -4.1352    2.4787 H       1  UNL1        0.0637
     53 H          -3.9303   -4.1851    4.9082 H       1  UNL1        0.0621
     54 H          -5.0306   -1.5278    7.1916 H       1  UNL1        0.0318
     55 H          -4.4738   -3.2137    7.0658 H       1  UNL1        0.0318
     56 H          -2.1967   -2.4188    6.4902 H       1  UNL1        0.0382
     57 H          -2.7535   -0.7328    6.6160 H       1  UNL1        0.0382
     58 H          -5.2637   -0.1452    5.2093 H       1  UNL1        0.0621
     59 H          -5.6578   -0.0941    2.7793 H       1  UNL1        0.0637
@<TRIPOS>BOND
     1     1     2    1
     2     1    33    1
     3     1    34    1
     4     1    35    1
     5     2     3    1
     6     2    36    1
     7     2    37    1
     8     3     4    1
     9     4    17   ar
    10     4     5   ar
    11     5     6   ar
    12     5    38    1
    13     6     7   ar
    14     6    39    1
    15     7     8    1
    16     7    16   ar
    17     8     9    2
    18     8    10    2
    19     8    11    1
    20    11    12    1
    21    11    14    1
    22    12    13    1
    23    12    40    1
    24    12    41    1
    25    13    42    1
    26    13    43    1
    27    13    44    1
    28    14    15    1
    29    14    45    1
    30    14    46    1
    31    15    47    1
    32    15    48    1
    33    15    49    1
    34    16    17   ar
    35    16    50    1
    36    17    18    1
    37    19    18    1
    38    18    51    1
    39    19    20    2
    40    19    21    2
    41    19    22    1
    42    22    32   ar
    43    22    23   ar
    44    23    24   ar
    45    23    52    1
    46    24    25   ar
    47    24    53    1
    48    25    26    1
    49    25    31   ar
    50    26    27    1
    51    26    54    1
    52    26    55    1
    53    27    28    1
    54    27    56    1
    55    27    57    1
    56    28    29   ar
    57    28    30   ar
    58    31    32   ar
    59    31    58    1
    60    32    59    1
