@<TRIPOS>MOLECULE
ZINC000028208302
 46 46 0 0 0
SMALL
GASTEIGER

@<TRIPOS>ATOM
      1 C          -0.0173    1.4248    0.0099 C.3     1  UNL1        0.0364
      2 O           0.0021   -0.0041    0.0020 O.3     1  UNL1       -0.3829
      3 C           0.6518   -0.5703   -1.1379 C.3     1  UNL1        0.0487
      4 C           0.6131   -2.0967   -1.0411 C.3     1  UNL1       -0.0139
      5 C           1.3087   -2.7029   -2.2615 C.3     1  UNL1        0.0137
      6 N           1.2717   -4.1645   -2.1688 N.am    1  UNL1       -0.3152
      7 C           1.8279   -4.9157   -3.1398 C.2     1  UNL1        0.2133
      8 O           2.3592   -4.3816   -4.0903 O.2     1  UNL1       -0.2758
      9 C           1.7898   -6.4192   -3.0444 C.3     1  UNL1        0.0279
     10 C           2.4855   -7.0254   -4.2649 C.3     1  UNL1       -0.0194
     11 C           2.4473   -8.5289   -4.1695 C.ar    1  UNL1       -0.0468
     12 C           3.4694   -9.2072   -3.5321 C.ar    1  UNL1       -0.0567
     13 C           3.4344  -10.5863   -3.4447 C.ar    1  UNL1       -0.0351
     14 C           2.3772  -11.2871   -3.9942 C.ar    1  UNL1        0.1055
     15 S           2.3329  -13.0451   -3.8832 S.O2    1  UNL1        0.0604
     16 O           1.5067  -13.4937   -4.9488 O.2     1  UNL1       -0.1529
     17 O           3.6777  -13.4702   -3.7105 O.2     1  UNL1       -0.1529
     18 N           1.5378  -13.4279   -2.4819 N.3     1  UNL1       -0.1827
     19 C           0.0841  -13.6092   -2.4906 C.3     1  UNL1        0.0086
     20 C           2.2881  -13.5853   -1.2336 C.3     1  UNL1        0.0086
     21 C           1.3544  -10.6088   -4.6304 C.ar    1  UNL1       -0.0351
     22 C           1.3875   -9.2294   -4.7145 C.ar    1  UNL1       -0.0567
     23 H           1.0053    1.8021    0.0021 H       1  UNL1        0.0523
     24 H          -0.5445    1.7859   -0.8732 H       1  UNL1        0.0523
     25 H          -0.5275    1.7763    0.9067 H       1  UNL1        0.0523
     26 H           0.1385   -0.2506   -2.0447 H       1  UNL1        0.0560
     27 H           1.6883   -0.2344   -1.1694 H       1  UNL1        0.0560
     28 H           1.1264   -2.4164   -0.1342 H       1  UNL1        0.0302
     29 H          -0.4234   -2.4326   -1.0095 H       1  UNL1        0.0302
     30 H           0.7954   -2.3833   -3.1684 H       1  UNL1        0.0463
     31 H           2.3452   -2.3671   -2.2930 H       1  UNL1        0.0463
     32 H           0.8468   -4.5917   -1.4086 H       1  UNL1        0.1487
     33 H           2.3031   -6.7389   -2.1376 H       1  UNL1        0.0361
     34 H           0.7533   -6.7551   -3.0129 H       1  UNL1        0.0361
     35 H           1.9722   -6.7057   -5.1717 H       1  UNL1        0.0318
     36 H           3.5219   -6.6895   -4.2964 H       1  UNL1        0.0318
     37 H           4.2954   -8.6596   -3.1028 H       1  UNL1        0.0621
     38 H           4.2332  -11.1163   -2.9473 H       1  UNL1        0.0637
     39 H          -0.1770  -14.4195   -3.1713 H       1  UNL1        0.0408
     40 H          -0.2574  -13.8550   -1.4851 H       1  UNL1        0.0408
     41 H          -0.3950  -12.6878   -2.8219 H       1  UNL1        0.0408
     42 H           2.3484  -12.6246   -0.7222 H       1  UNL1        0.0408
     43 H           1.7806  -14.3066   -0.5931 H       1  UNL1        0.0408
     44 H           3.2937  -13.9419   -1.4566 H       1  UNL1        0.0408
     45 H           0.5283  -11.1563   -5.0594 H       1  UNL1        0.0637
     46 H           0.5885   -8.6994   -5.2116 H       1  UNL1        0.0621
@<TRIPOS>BOND
     1     1     2    1
     2     1    23    1
     3     1    24    1
     4     1    25    1
     5     2     3    1
     6     3     4    1
     7     3    26    1
     8     3    27    1
     9     4     5    1
    10     4    28    1
    11     4    29    1
    12     5     6    1
    13     5    30    1
    14     5    31    1
    15     6     7   am
    16     6    32    1
    17     7     8    2
    18     7     9    1
    19     9    10    1
    20     9    33    1
    21     9    34    1
    22    10    11    1
    23    10    35    1
    24    10    36    1
    25    11    22   ar
    26    11    12   ar
    27    12    13   ar
    28    12    37    1
    29    13    14   ar
    30    13    38    1
    31    14    15    1
    32    14    21   ar
    33    15    16    2
    34    15    17    2
    35    15    18    1
    36    18    19    1
    37    18    20    1
    38    19    39    1
    39    19    40    1
    40    19    41    1
    41    20    42    1
    42    20    43    1
    43    20    44    1
    44    21    22   ar
    45    21    45    1
    46    22    46    1
