@<TRIPOS>MOLECULE
ZINC000004694954
 50 51 0 0 0
SMALL
GASTEIGER

@<TRIPOS>ATOM
      1 C          -0.0173    1.4248    0.0099 C.3     1  UNL1        0.0365
      2 O           0.0021   -0.0041    0.0020 O.3     1  UNL1       -0.3814
      3 C           0.6734   -0.5824    1.1231 C.3     1  UNL1        0.0628
      4 C           0.6327   -2.1077    1.0107 C.3     1  UNL1        0.0350
      5 N           1.4013   -2.5316   -0.1622 N.am    1  UNL1       -0.3120
      6 C           1.5054   -3.8414   -0.4623 C.2     1  UNL1        0.2289
      7 O           0.9628   -4.6691    0.2386 O.2     1  UNL1       -0.2743
      8 C           2.2961   -4.2775   -1.6689 C.3     1  UNL1        0.0968
      9 N           2.2571   -5.7380   -1.7765 N.3     1  UNL1       -0.1675
     10 C           1.1335   -6.3930   -2.4509 C.3     1  UNL1        0.0250
     11 C           1.3975   -6.4356   -3.9573 C.3     1  UNL1       -0.0132
     12 C           0.2417   -7.1094   -4.6510 C.ar    1  UNL1       -0.0461
     13 C           0.2517   -8.4789   -4.8390 C.ar    1  UNL1       -0.0585
     14 C          -0.8084   -9.0970   -5.4753 C.ar    1  UNL1       -0.0615
     15 C          -1.8789   -8.3457   -5.9231 C.ar    1  UNL1       -0.0617
     16 C          -1.8894   -6.9764   -5.7342 C.ar    1  UNL1       -0.0615
     17 C          -0.8312   -6.3588   -5.0941 C.ar    1  UNL1       -0.0585
     18 S           3.4831   -6.6485   -1.1360 S.O2    1  UNL1        0.0613
     19 O           3.5746   -7.8186   -1.9370 O.2     1  UNL1       -0.1528
     20 O           4.5741   -5.7623   -0.9272 O.2     1  UNL1       -0.1528
     21 C           2.9598   -7.1783    0.4609 C.ar    1  UNL1        0.1055
     22 C           3.2283   -6.3985    1.5702 C.ar    1  UNL1       -0.0353
     23 C           2.8178   -6.8141    2.8231 C.ar    1  UNL1       -0.0599
     24 C           2.1384   -8.0094    2.9665 C.ar    1  UNL1       -0.0616
     25 C           1.8690   -8.7888    1.8570 C.ar    1  UNL1       -0.0599
     26 C           2.2758   -8.3710    0.6037 C.ar    1  UNL1       -0.0353
     27 H           1.0053    1.8021    0.0021 H       1  UNL1        0.0523
     28 H          -0.5445    1.7859   -0.8732 H       1  UNL1        0.0523
     29 H          -0.5275    1.7763    0.9067 H       1  UNL1        0.0523
     30 H           1.7103   -0.2468    1.1385 H       1  UNL1        0.0575
     31 H           0.1775   -0.2725    2.0430 H       1  UNL1        0.0575
     32 H           1.0656   -2.5499    1.9080 H       1  UNL1        0.0484
     33 H          -0.4012   -2.4369    0.9060 H       1  UNL1        0.0484
     34 H           1.8353   -1.8696   -0.7228 H       1  UNL1        0.1488
     35 H           1.8631   -3.8353   -2.5662 H       1  UNL1        0.0539
     36 H           3.3299   -3.9483   -1.5642 H       1  UNL1        0.0539
     37 H           1.0250   -7.4094   -2.0721 H       1  UNL1        0.0447
     38 H           0.2180   -5.8338   -2.2581 H       1  UNL1        0.0447
     39 H           1.5060   -5.4193   -4.3360 H       1  UNL1        0.0326
     40 H           2.3130   -6.9949   -4.1501 H       1  UNL1        0.0326
     41 H           1.0881   -9.0659   -4.4892 H       1  UNL1        0.0620
     42 H          -0.8002  -10.1668   -5.6229 H       1  UNL1        0.0618
     43 H          -2.7069   -8.8285   -6.4208 H       1  UNL1        0.0618
     44 H          -2.7256   -6.3893   -6.0844 H       1  UNL1        0.0618
     45 H          -0.8394   -5.2890   -4.9466 H       1  UNL1        0.0620
     46 H           3.7592   -5.4646    1.4582 H       1  UNL1        0.0637
     47 H           3.0282   -6.2052    3.6899 H       1  UNL1        0.0618
     48 H           1.8182   -8.3345    3.9454 H       1  UNL1        0.0618
     49 H           1.3385   -9.7228    1.9691 H       1  UNL1        0.0618
     50 H           2.0654   -8.9799   -0.2632 H       1  UNL1        0.0637
@<TRIPOS>BOND
     1     1     2    1
     2     1    27    1
     3     1    28    1
     4     1    29    1
     5     2     3    1
     6     3     4    1
     7     3    30    1
     8     3    31    1
     9     4     5    1
    10     4    32    1
    11     4    33    1
    12     5     6   am
    13     5    34    1
    14     6     7    2
    15     6     8    1
    16     8     9    1
    17     8    35    1
    18     8    36    1
    19     9    10    1
    20    18     9    1
    21    10    11    1
    22    10    37    1
    23    10    38    1
    24    11    12    1
    25    11    39    1
    26    11    40    1
    27    12    17   ar
    28    12    13   ar
    29    13    14   ar
    30    13    41    1
    31    14    15   ar
    32    14    42    1
    33    15    16   ar
    34    15    43    1
    35    16    17   ar
    36    16    44    1
    37    17    45    1
    38    18    19    2
    39    18    20    2
    40    18    21    1
    41    21    26   ar
    42    21    22   ar
    43    22    23   ar
    44    22    46    1
    45    23    24   ar
    46    23    47    1
    47    24    25   ar
    48    24    48    1
    49    25    26   ar
    50    25    49    1
    51    26    50    1
