@<TRIPOS>MOLECULE
ZINC000012883027
 39 40 0 0 0
SMALL
GASTEIGER

@<TRIPOS>ATOM
      1 C          -0.0319    1.5308    0.1856 C.3     1  UNL1       -0.0478
      2 C          -0.0052    0.0041    0.0881 C.3     1  UNL1        0.0294
      3 H           0.3758   -0.2930   -0.8889 H       1  UNL1        0.0477
      4 C          -1.4220   -0.5473    0.2763 C.3     1  UNL1       -0.0359
      5 C          -1.3688   -2.0762    0.3169 C.3     1  UNL1       -0.0501
      6 C          -0.5134   -2.5273    1.5031 C.3     1  UNL1       -0.0359
      7 C           0.9137   -1.9983    1.3288 C.3     1  UNL1        0.0294
      8 H           1.3706   -2.4609    0.4540 H       1  UNL1        0.0477
      9 C           1.7390   -2.3293    2.5739 C.3     1  UNL1       -0.0478
     10 N           0.8615   -0.5416    1.1416 N.3     1  UNL1       -0.1710
     11 S           1.7576    0.4654    2.1035 S.O2    1  UNL1        0.0613
     12 O           1.1021    1.7261    2.0852 O.2     1  UNL1       -0.1528
     13 O           2.0245   -0.2545    3.2992 O.2     1  UNL1       -0.1528
     14 C           3.3116    0.7010    1.3072 C.ar    1  UNL1        0.1060
     15 C           4.3611   -0.1585    1.5720 C.ar    1  UNL1       -0.0353
     16 C           5.5805    0.0264    0.9471 C.ar    1  UNL1       -0.0594
     17 C           5.7498    1.0704    0.0573 C.ar    1  UNL1       -0.0500
     18 C           4.6997    1.9296   -0.2082 C.ar    1  UNL1        0.0567
     19 C           4.8845    3.0682   -1.1780 C.3     1  UNL1        0.4175
     20 F           6.1919    3.0494   -1.6757 F       1  UNL1       -0.1659
     21 F           3.9805    2.9303   -2.2368 F       1  UNL1       -0.1659
     22 F           4.6527    4.2818   -0.5220 F       1  UNL1       -0.1659
     23 C           3.4795    1.7422    0.4132 C.ar    1  UNL1       -0.0237
     24 H           0.9889    1.9130    0.1827 H       1  UNL1        0.0245
     25 H          -0.5754    1.9398   -0.6661 H       1  UNL1        0.0245
     26 H          -0.5282    1.8273    1.1096 H       1  UNL1        0.0245
     27 H          -1.8369   -0.1727    1.2121 H       1  UNL1        0.0281
     28 H          -2.0504   -0.2271   -0.5548 H       1  UNL1        0.0281
     29 H          -2.3785   -2.4720    0.4261 H       1  UNL1        0.0266
     30 H          -0.9310   -2.4491   -0.6091 H       1  UNL1        0.0266
     31 H          -0.9369   -2.1341    2.4273 H       1  UNL1        0.0281
     32 H          -0.4951   -3.6163    1.5452 H       1  UNL1        0.0281
     33 H           1.8626   -3.4095    2.6513 H       1  UNL1        0.0245
     34 H           2.7180   -1.8562    2.4972 H       1  UNL1        0.0245
     35 H           1.2244   -1.9580    3.4602 H       1  UNL1        0.0245
     36 H           4.2288   -0.9742    2.2672 H       1  UNL1        0.0637
     37 H           6.4008   -0.6448    1.1546 H       1  UNL1        0.0618
     38 H           6.7026    1.2152   -0.4303 H       1  UNL1        0.0623
     39 H           2.6591    2.4133    0.2057 H       1  UNL1        0.0642
@<TRIPOS>BOND
     1     1     2    1
     2     1    24    1
     3     1    25    1
     4     1    26    1
     5     2     3    1
     6     2    10    1
     7     2     4    1
     8     4     5    1
     9     4    27    1
    10     4    28    1
    11     5     6    1
    12     5    29    1
    13     5    30    1
    14     6     7    1
    15     6    31    1
    16     6    32    1
    17     7     8    1
    18     7     9    1
    19     7    10    1
    20     9    33    1
    21     9    34    1
    22     9    35    1
    23    11    10    1
    24    11    12    2
    25    11    13    2
    26    11    14    1
    27    14    23   ar
    28    14    15   ar
    29    15    16   ar
    30    15    36    1
    31    16    17   ar
    32    16    37    1
    33    17    18   ar
    34    17    38    1
    35    18    19    1
    36    18    23   ar
    37    19    20    1
    38    19    21    1
    39    19    22    1
    40    23    39    1
