@<TRIPOS>MOLECULE
ZINC000408625065
 50 51 0 0 0
SMALL
GASTEIGER

@<TRIPOS>ATOM
      1 C          -0.0173    1.4248    0.0099 C.3     1  UNL1        0.0365
      2 O           0.0021   -0.0041    0.0020 O.3     1  UNL1       -0.3812
      3 C           0.6518   -0.5703   -1.1379 C.3     1  UNL1        0.0654
      4 C           0.6131   -2.0967   -1.0411 C.3     1  UNL1        0.0437
      5 H           1.0288   -2.5292   -1.9512 H       1  UNL1        0.0518
      6 C          -0.8350   -2.5604   -0.8713 C.3     1  UNL1       -0.0445
      7 N           1.4039   -2.5331    0.1124 N.am    1  UNL1       -0.3094
      8 C           1.9385   -3.7701    0.1337 C.2     1  UNL1        0.2291
      9 O           1.7649   -4.5220   -0.8019 O.2     1  UNL1       -0.2743
     10 C           2.7520   -4.2190    1.3202 C.3     1  UNL1        0.0971
     11 N           3.2178   -5.5908    1.1021 N.3     1  UNL1       -0.1635
     12 C           4.4475   -5.8351    0.3443 C.3     1  UNL1        0.0460
     13 C           5.6348   -5.7323    1.2666 C.ar    1  UNL1       -0.0317
     14 C           6.2607   -4.5141    1.4545 C.ar    1  UNL1       -0.0573
     15 C           7.3498   -4.4198    2.3006 C.ar    1  UNL1       -0.0615
     16 C           7.8128   -5.5436    2.9591 C.ar    1  UNL1       -0.0617
     17 C           7.1863   -6.7616    2.7719 C.ar    1  UNL1       -0.0615
     18 C           6.0946   -6.8550    1.9292 C.ar    1  UNL1       -0.0573
     19 S           2.3542   -6.8653    1.7123 S.O2    1  UNL1        0.0616
     20 O           3.2689   -7.9452    1.8402 O.2     1  UNL1       -0.1528
     21 O           1.5989   -6.3533    2.8016 O.2     1  UNL1       -0.1528
     22 C           1.1891   -7.3435    0.4800 C.ar    1  UNL1        0.1056
     23 C          -0.0658   -6.7643    0.4539 C.ar    1  UNL1       -0.0340
     24 C          -0.9802   -7.1390   -0.5125 C.ar    1  UNL1       -0.0415
     25 C          -0.6393   -8.0939   -1.4538 C.ar    1  UNL1        0.0411
     26 CL         -1.7870   -8.5646   -2.6682 Cl      1  UNL1       -0.0835
     27 C           0.6168   -8.6732   -1.4271 C.ar    1  UNL1       -0.0415
     28 C           1.5323   -8.2935   -0.4637 C.ar    1  UNL1       -0.0340
     29 H           1.0053    1.8021    0.0021 H       1  UNL1        0.0523
     30 H          -0.5445    1.7859   -0.8732 H       1  UNL1        0.0523
     31 H          -0.5275    1.7763    0.9067 H       1  UNL1        0.0523
     32 H           0.1385   -0.2506   -2.0447 H       1  UNL1        0.0578
     33 H           1.6883   -0.2344   -1.1694 H       1  UNL1        0.0578
     34 H          -1.4235   -2.2357   -1.7295 H       1  UNL1        0.0248
     35 H          -0.8626   -3.6479   -0.8024 H       1  UNL1        0.0248
     36 H          -1.2507   -2.1280    0.0388 H       1  UNL1        0.0248
     37 H           1.5428   -1.9317    0.8607 H       1  UNL1        0.1491
     38 H           3.6107   -3.5589    1.4427 H       1  UNL1        0.0539
     39 H           2.1352   -4.1832    2.2182 H       1  UNL1        0.0539
     40 H           4.4126   -6.8328   -0.0932 H       1  UNL1        0.0493
     41 H           4.5386   -5.0934   -0.4493 H       1  UNL1        0.0493
     42 H           5.8989   -3.6361    0.9400 H       1  UNL1        0.0621
     43 H           7.8392   -3.4682    2.4469 H       1  UNL1        0.0618
     44 H           8.6641   -5.4701    3.6196 H       1  UNL1        0.0618
     45 H           7.5483   -7.6396    3.2862 H       1  UNL1        0.0618
     46 H           5.6052   -7.8066    1.7829 H       1  UNL1        0.0621
     47 H          -0.3320   -6.0191    1.1890 H       1  UNL1        0.0637
     48 H          -1.9607   -6.6867   -0.5326 H       1  UNL1        0.0633
     49 H           0.8834   -9.4188   -2.1615 H       1  UNL1        0.0633
     50 H           2.5130   -8.7454   -0.4430 H       1  UNL1        0.0637
@<TRIPOS>BOND
     1     1     2    1
     2     1    29    1
     3     1    30    1
     4     1    31    1
     5     2     3    1
     6     3     4    1
     7     3    32    1
     8     3    33    1
     9     4     5    1
    10     4     6    1
    11     4     7    1
    12     6    34    1
    13     6    35    1
    14     6    36    1
    15     7     8   am
    16     7    37    1
    17     8     9    2
    18     8    10    1
    19    10    11    1
    20    10    38    1
    21    10    39    1
    22    11    12    1
    23    19    11    1
    24    12    13    1
    25    12    40    1
    26    12    41    1
    27    13    18   ar
    28    13    14   ar
    29    14    15   ar
    30    14    42    1
    31    15    16   ar
    32    15    43    1
    33    16    17   ar
    34    16    44    1
    35    17    18   ar
    36    17    45    1
    37    18    46    1
    38    19    20    2
    39    19    21    2
    40    19    22    1
    41    22    28   ar
    42    22    23   ar
    43    23    24   ar
    44    23    47    1
    45    24    25   ar
    46    24    48    1
    47    25    26    1
    48    25    27   ar
    49    27    28   ar
    50    27    49    1
    51    28    50    1
