@<TRIPOS>MOLECULE
ZINC000089904834
 51 53 0 0 0
SMALL
GASTEIGER

@<TRIPOS>ATOM
      1 C           4.4170   -0.3030   -9.9532 C.3     1  UNL1        0.0788
      2 O           5.2549   -0.9211   -8.9745 O.3     1  UNL1       -0.4951
      3 C           4.6588   -1.3378   -7.8264 C.ar    1  UNL1        0.1201
      4 C           3.2944   -1.1607   -7.6481 C.ar    1  UNL1       -0.0196
      5 C           2.6908   -1.5856   -6.4804 C.ar    1  UNL1       -0.0524
      6 C           3.4453   -2.1865   -5.4897 C.ar    1  UNL1       -0.0146
      7 C           2.7842   -2.6486   -4.2167 C.3     1  UNL1        0.1052
      8 C           3.2364   -1.7605   -3.0558 C.3     1  UNL1       -0.0303
      9 O           1.3649   -2.5616   -4.3583 O.3     1  UNL1       -0.3826
     10 C           3.1806   -4.0990   -3.9337 C.3     1  UNL1        0.0645
     11 H           2.3460   -4.6282   -3.4737 H       1  UNL1        0.0512
     12 C           4.4056   -4.1349   -2.9959 C.3     1  UNL1       -0.0315
     13 C           5.2387   -5.3172   -3.5574 C.3     1  UNL1       -0.0370
     14 C           4.9782   -5.1862   -5.0789 C.3     1  UNL1        0.0210
     15 N           3.5660   -4.7655   -5.1862 N.3     1  UNL1       -0.1705
     16 S           2.5851   -5.0039   -6.4989 S.O2    1  UNL1        0.0612
     17 O           1.6509   -3.9331   -6.5015 O.2     1  UNL1       -0.1528
     18 O           3.4435   -5.2891   -7.5948 O.2     1  UNL1       -0.1528
     19 C           1.6583   -6.4719   -6.1977 C.ar    1  UNL1        0.1055
     20 C           2.1560   -7.6978   -6.5982 C.ar    1  UNL1       -0.0348
     21 C           1.4289   -8.8495   -6.3620 C.ar    1  UNL1       -0.0483
     22 C           0.2044   -8.7754   -5.7248 C.ar    1  UNL1        0.0549
     23 C          -0.5885  -10.0309   -5.4677 C.3     1  UNL1        0.4174
     24 F          -0.2350  -10.5586   -4.2211 F       1  UNL1       -0.1659
     25 F          -1.9546   -9.7297   -5.4762 F       1  UNL1       -0.1659
     26 F          -0.3118  -10.9700   -6.4670 F       1  UNL1       -0.1659
     27 C          -0.2927   -7.5496   -5.3231 C.ar    1  UNL1       -0.0483
     28 C           0.4362   -6.3983   -5.5559 C.ar    1  UNL1       -0.0348
     29 C           4.8051   -2.3645   -5.6652 C.ar    1  UNL1       -0.0524
     30 C           5.4126   -1.9461   -6.8333 C.ar    1  UNL1       -0.0196
     31 H           3.6423   -1.0043  -10.2633 H       1  UNL1        0.0660
     32 H           3.9526    0.5854   -9.5251 H       1  UNL1        0.0660
     33 H           5.0168   -0.0187  -10.8177 H       1  UNL1        0.0660
     34 H           2.7048   -0.6908   -8.4213 H       1  UNL1        0.0654
     35 H           1.6287   -1.4480   -6.3411 H       1  UNL1        0.0622
     36 H           2.8390   -0.7547   -3.1916 H       1  UNL1        0.0261
     37 H           2.8670   -2.1735   -2.1172 H       1  UNL1        0.0261
     38 H           4.3254   -1.7206   -3.0316 H       1  UNL1        0.0261
     39 H           1.0023   -3.1363   -5.0462 H       1  UNL1        0.2107
     40 H           4.9673   -3.2029   -3.0593 H       1  UNL1        0.0282
     41 H           4.0993   -4.3325   -1.9686 H       1  UNL1        0.0282
     42 H           6.2974   -5.1920   -3.3301 H       1  UNL1        0.0279
     43 H           4.8694   -6.2701   -3.1784 H       1  UNL1        0.0279
     44 H           5.6342   -4.4313   -5.5124 H       1  UNL1        0.0444
     45 H           5.1251   -6.1466   -5.5729 H       1  UNL1        0.0444
     46 H           3.1126   -7.7558   -7.0960 H       1  UNL1        0.0637
     47 H           1.8174   -9.8072   -6.6755 H       1  UNL1        0.0624
     48 H          -1.2492   -7.4918   -4.8250 H       1  UNL1        0.0624
     49 H           0.0479   -5.4407   -5.2421 H       1  UNL1        0.0637
     50 H           5.3923   -2.8344   -4.8901 H       1  UNL1        0.0622
     51 H           6.4749   -2.0853   -6.9699 H       1  UNL1        0.0654
@<TRIPOS>BOND
     1     1     2    1
     2     1    31    1
     3     1    32    1
     4     1    33    1
     5     2     3    1
     6     3    30   ar
     7     3     4   ar
     8     4     5   ar
     9     4    34    1
    10     5     6   ar
    11     5    35    1
    12     6    29   ar
    13     7     6    1
    14     7     8    1
    15     7     9    1
    16     7    10    1
    17     8    36    1
    18     8    37    1
    19     8    38    1
    20     9    39    1
    21    10    11    1
    22    10    15    1
    23    10    12    1
    24    12    13    1
    25    12    40    1
    26    12    41    1
    27    13    14    1
    28    13    42    1
    29    13    43    1
    30    14    15    1
    31    14    44    1
    32    14    45    1
    33    16    15    1
    34    16    17    2
    35    16    18    2
    36    16    19    1
    37    19    28   ar
    38    19    20   ar
    39    20    21   ar
    40    20    46    1
    41    21    22   ar
    42    21    47    1
    43    22    23    1
    44    22    27   ar
    45    23    24    1
    46    23    25    1
    47    23    26    1
    48    27    28   ar
    49    27    48    1
    50    28    49    1
    51    29    30   ar
    52    29    50    1
    53    30    51    1
