@<TRIPOS>MOLECULE
ZINC000408617375
 50 51 0 0 0
SMALL
GASTEIGER

@<TRIPOS>ATOM
      1 C          -0.0173    1.4248    0.0099 C.3     1  UNL1        0.0365
      2 O           0.0021   -0.0041    0.0020 O.3     1  UNL1       -0.3812
      3 C           0.6734   -0.5824    1.1231 C.3     1  UNL1        0.0654
      4 C           0.6327   -2.1077    1.0107 C.3     1  UNL1        0.0437
      5 H           1.2199   -2.5473    1.8170 H       1  UNL1        0.0518
      6 C           1.2166   -2.5355   -0.3372 C.3     1  UNL1       -0.0445
      7 N          -0.7546   -2.5679    1.1100 N.am    1  UNL1       -0.3094
      8 C          -1.0210   -3.8180    1.5375 C.2     1  UNL1        0.2291
      9 O          -0.1122   -4.5620    1.8399 O.2     1  UNL1       -0.2743
     10 C          -2.4481   -4.2913    1.6397 C.3     1  UNL1        0.0971
     11 N          -2.4706   -5.6735    2.1246 N.3     1  UNL1       -0.1635
     12 C          -2.4250   -5.9460    3.5633 C.3     1  UNL1        0.0460
     13 C          -3.8187   -5.8762    4.1322 C.ar    1  UNL1       -0.0316
     14 C          -4.3129   -4.6746    4.6044 C.ar    1  UNL1       -0.0559
     15 C          -5.5911   -4.6101    5.1263 C.ar    1  UNL1       -0.0431
     16 C          -6.3760   -5.7483    5.1761 C.ar    1  UNL1        0.0410
     17 CL         -7.9818   -5.6679    5.8309 Cl      1  UNL1       -0.0835
     18 C          -5.8809   -6.9506    4.7033 C.ar    1  UNL1       -0.0431
     19 C          -4.6046   -7.0127    4.1765 C.ar    1  UNL1       -0.0559
     20 S          -2.5476   -6.9281    1.0463 S.O2    1  UNL1        0.0616
     21 O          -3.2364   -7.9819    1.7054 O.2     1  UNL1       -0.1528
     22 O          -2.9781   -6.3706   -0.1878 O.2     1  UNL1       -0.1528
     23 C          -0.8997   -7.4957    0.7880 C.ar    1  UNL1        0.1055
     24 C          -0.1276   -6.9427   -0.2164 C.ar    1  UNL1       -0.0353
     25 C           1.1652   -7.3880   -0.4191 C.ar    1  UNL1       -0.0599
     26 C           1.6862   -8.3861    0.3830 C.ar    1  UNL1       -0.0616
     27 C           0.9144   -8.9385    1.3881 C.ar    1  UNL1       -0.0599
     28 C          -0.3770   -8.4902    1.5935 C.ar    1  UNL1       -0.0353
     29 H           1.0053    1.8021    0.0021 H       1  UNL1        0.0523
     30 H          -0.5445    1.7859   -0.8732 H       1  UNL1        0.0523
     31 H          -0.5275    1.7763    0.9067 H       1  UNL1        0.0523
     32 H           1.7103   -0.2468    1.1385 H       1  UNL1        0.0578
     33 H           0.1775   -0.2725    2.0430 H       1  UNL1        0.0578
     34 H           0.6294   -2.0960   -1.1435 H       1  UNL1        0.0248
     35 H           2.2488   -2.1932   -0.4112 H       1  UNL1        0.0248
     36 H           1.1876   -3.6222   -0.4173 H       1  UNL1        0.0248
     37 H          -1.4815   -1.9728    0.8682 H       1  UNL1        0.1491
     38 H          -2.9936   -3.6534    2.3351 H       1  UNL1        0.0539
     39 H          -2.9181   -4.2431    0.6574 H       1  UNL1        0.0539
     40 H          -2.0131   -6.9410    3.7318 H       1  UNL1        0.0493
     41 H          -1.7948   -5.2040    4.0537 H       1  UNL1        0.0493
     42 H          -3.7000   -3.7863    4.5659 H       1  UNL1        0.0621
     43 H          -5.9770   -3.6714    5.4955 H       1  UNL1        0.0632
     44 H          -6.4930   -7.8395    4.7422 H       1  UNL1        0.0632
     45 H          -4.2181   -7.9511    3.8071 H       1  UNL1        0.0621
     46 H          -0.5347   -6.1629   -0.8431 H       1  UNL1        0.0637
     47 H           1.7682   -6.9565   -1.2043 H       1  UNL1        0.0618
     48 H           2.6960   -8.7345    0.2242 H       1  UNL1        0.0618
     49 H           1.3213   -9.7185    2.0145 H       1  UNL1        0.0618
     50 H          -0.9799   -8.9217    2.3787 H       1  UNL1        0.0637
@<TRIPOS>BOND
     1     1     2    1
     2     1    29    1
     3     1    30    1
     4     1    31    1
     5     2     3    1
     6     3     4    1
     7     3    32    1
     8     3    33    1
     9     4     5    1
    10     4     6    1
    11     4     7    1
    12     6    34    1
    13     6    35    1
    14     6    36    1
    15     7     8   am
    16     7    37    1
    17     8     9    2
    18     8    10    1
    19    10    11    1
    20    10    38    1
    21    10    39    1
    22    11    12    1
    23    20    11    1
    24    12    13    1
    25    12    40    1
    26    12    41    1
    27    13    19   ar
    28    13    14   ar
    29    14    15   ar
    30    14    42    1
    31    15    16   ar
    32    15    43    1
    33    16    17    1
    34    16    18   ar
    35    18    19   ar
    36    18    44    1
    37    19    45    1
    38    20    21    2
    39    20    22    2
    40    20    23    1
    41    23    28   ar
    42    23    24   ar
    43    24    25   ar
    44    24    46    1
    45    25    26   ar
    46    25    47    1
    47    26    27   ar
    48    26    48    1
    49    27    28   ar
    50    27    49    1
    51    28    50    1
