@<TRIPOS>MOLECULE
ZINC000024685909
 40 41 0 0 0
SMALL
GASTEIGER

@<TRIPOS>ATOM
      1 C           1.0322    0.7831    0.4409 C.3     1  UNL1        0.0001
      2 N           1.1405   -0.6523    0.1687 N.am    1  UNL1       -0.3170
      3 C           0.5262   -1.1823   -0.9075 C.2     1  UNL1        0.2317
      4 O          -0.1163   -0.4709   -1.6506 O.2     1  UNL1       -0.2740
      5 C           0.6376   -2.6588   -1.1876 C.3     1  UNL1        0.1077
      6 H           1.2583   -3.1295   -0.4251 H       1  UNL1        0.0575
      7 C          -0.7579   -3.2905   -1.1756 C.3     1  UNL1       -0.0272
      8 C          -0.6528   -4.7581   -1.5967 C.3     1  UNL1       -0.0499
      9 C          -0.0961   -4.8437   -3.0197 C.3     1  UNL1       -0.0385
     10 C           1.3070   -4.2296   -3.0525 C.3     1  UNL1        0.0213
     11 N           1.2418   -2.8650   -2.5109 N.3     1  UNL1       -0.1647
     12 S           1.8324   -1.5838   -3.3782 S.O2    1  UNL1        0.0615
     13 O           2.1364   -0.5662   -2.4342 O.2     1  UNL1       -0.1528
     14 O           2.7911   -2.1182   -4.2808 O.2     1  UNL1       -0.1528
     15 C           0.5091   -0.9678   -4.3651 C.ar    1  UNL1        0.1060
     16 C           0.0825   -1.6789   -5.4708 C.ar    1  UNL1       -0.0353
     17 C          -0.9558   -1.1956   -6.2452 C.ar    1  UNL1       -0.0594
     18 C          -1.5675   -0.0014   -5.9134 C.ar    1  UNL1       -0.0500
     19 C          -1.1414    0.7096   -4.8069 C.ar    1  UNL1        0.0567
     20 C          -1.8080    2.0118   -4.4454 C.3     1  UNL1        0.4175
     21 F          -2.8206    2.2897   -5.3698 F       1  UNL1       -0.1659
     22 F          -2.3607    1.9129   -3.1640 F       1  UNL1       -0.1659
     23 F          -0.8616    3.0419   -4.4667 F       1  UNL1       -0.1659
     24 C          -0.1062    0.2242   -4.0302 C.ar    1  UNL1       -0.0237
     25 H           1.4419    1.3442   -0.3990 H       1  UNL1        0.0426
     26 H          -0.0159    1.0487    0.5786 H       1  UNL1        0.0426
     27 H           1.5901    1.0244    1.3457 H       1  UNL1        0.0426
     28 H           1.6544   -1.2212    0.7629 H       1  UNL1        0.1484
     29 H          -1.1764   -3.2294   -0.1710 H       1  UNL1        0.0286
     30 H          -1.4046   -2.7575   -1.8726 H       1  UNL1        0.0286
     31 H           0.0135   -5.2850   -0.9138 H       1  UNL1        0.0266
     32 H          -1.6412   -5.2166   -1.5653 H       1  UNL1        0.0266
     33 H          -0.0434   -5.8880   -3.3276 H       1  UNL1        0.0278
     34 H          -0.7489   -4.2960   -3.6993 H       1  UNL1        0.0278
     35 H           1.9830   -4.8301   -2.4439 H       1  UNL1        0.0444
     36 H           1.6681   -4.1980   -4.0805 H       1  UNL1        0.0444
     37 H           0.5605   -2.6121   -5.7301 H       1  UNL1        0.0637
     38 H          -1.2887   -1.7509   -7.1096 H       1  UNL1        0.0618
     39 H          -2.3781    0.3766   -6.5187 H       1  UNL1        0.0623
     40 H           0.2267    0.7795   -3.1658 H       1  UNL1        0.0642
@<TRIPOS>BOND
     1     1     2    1
     2     1    25    1
     3     1    26    1
     4     1    27    1
     5     2     3   am
     6     2    28    1
     7     3     4    2
     8     3     5    1
     9     5     6    1
    10     5    11    1
    11     5     7    1
    12     7     8    1
    13     7    29    1
    14     7    30    1
    15     8     9    1
    16     8    31    1
    17     8    32    1
    18     9    10    1
    19     9    33    1
    20     9    34    1
    21    10    11    1
    22    10    35    1
    23    10    36    1
    24    12    11    1
    25    12    13    2
    26    12    14    2
    27    12    15    1
    28    15    24   ar
    29    15    16   ar
    30    16    17   ar
    31    16    37    1
    32    17    18   ar
    33    17    38    1
    34    18    19   ar
    35    18    39    1
    36    19    20    1
    37    19    24   ar
    38    20    21    1
    39    20    22    1
    40    20    23    1
    41    24    40    1
