@<TRIPOS>MOLECULE
ZINC000207976157
 45 46 0 0 0
SMALL
GASTEIGER

@<TRIPOS>ATOM
      1 C           0.3248    1.3792   -0.3656 C.3     1  UNL1        0.0365
      2 O           0.2784   -0.0467   -0.2842 O.3     1  UNL1       -0.3817
      3 C          -1.0367   -0.5931   -0.4026 C.3     1  UNL1        0.0617
      4 C          -0.9662   -2.1182   -0.3016 C.3     1  UNL1        0.0443
      5 N          -0.5077   -2.4983    1.0368 N.3     1  UNL1       -0.1700
      6 C          -1.4694   -2.6103    2.1362 C.3     1  UNL1        0.0486
      7 C          -2.0950   -3.9812    2.1188 C.ar    1  UNL1        0.0060
      8 C          -3.2077   -4.3462    1.4569 C.ar    1  UNL1        0.0961
      9 O          -3.4352   -5.6482    1.6950 O.2     1  UNL1       -0.4707
     10 C          -2.4785   -6.1291    2.5057 C.ar    1  UNL1        0.0920
     11 C          -1.6215   -5.1320    2.7899 C.ar    1  UNL1       -0.0195
     12 S           1.0978   -2.8014    1.3069 S.O2    1  UNL1        0.0612
     13 O           1.1605   -3.6420    2.4510 O.2     1  UNL1       -0.1528
     14 O           1.6561   -3.1572    0.0496 O.2     1  UNL1       -0.1528
     15 C           1.8462   -1.2748    1.7696 C.ar    1  UNL1        0.1056
     16 C           2.3718   -0.4420    0.7988 C.ar    1  UNL1       -0.0336
     17 C           2.9594    0.7551    1.1583 C.ar    1  UNL1       -0.0385
     18 C           3.0217    1.1222    2.4960 C.ar    1  UNL1        0.0366
     19 N           3.6161    2.3348    2.8635 N.am    1  UNL1       -0.2512
     20 C           4.2790    2.4333    4.0328 C.2     1  UNL1        0.4043
     21 O           4.4439    1.4467    4.7227 O.2     1  UNL1       -0.2261
     22 O           4.7585    3.6249    4.4366 O.3     1  UNL1       -0.4535
     23 C           5.4620    3.6565    5.7065 C.3     1  UNL1        0.0833
     24 C           2.4926    0.2839    3.4684 C.ar    1  UNL1       -0.0385
     25 C           1.9016   -0.9095    3.1021 C.ar    1  UNL1       -0.0336
     26 H           1.3570    1.7154   -0.2670 H       1  UNL1        0.0523
     27 H          -0.0718    1.7013   -1.3285 H       1  UNL1        0.0523
     28 H          -0.2754    1.8087    0.4365 H       1  UNL1        0.0523
     29 H          -1.6651   -0.2046    0.3988 H       1  UNL1        0.0573
     30 H          -1.4615   -0.3120   -1.3662 H       1  UNL1        0.0573
     31 H          -1.9552   -2.5402   -0.4804 H       1  UNL1        0.0467
     32 H          -0.2683   -2.4998   -1.0469 H       1  UNL1        0.0467
     33 H          -0.9556   -2.4575    3.0853 H       1  UNL1        0.0494
     34 H          -2.2462   -1.8549    2.0178 H       1  UNL1        0.0494
     35 H          -3.8154   -3.7014    0.8394 H       1  UNL1        0.1032
     36 H          -2.4071   -7.1450    2.8651 H       1  UNL1        0.1029
     37 H          -0.7443   -5.1963    3.4166 H       1  UNL1        0.0652
     38 H           2.3230   -0.7281   -0.2414 H       1  UNL1        0.0638
     39 H           3.3704    1.4048    0.3997 H       1  UNL1        0.0637
     40 H           3.5511    3.1043    2.2766 H       1  UNL1        0.1582
     41 H           4.7929    3.3256    6.5008 H       1  UNL1        0.0661
     42 H           6.3261    2.9937    5.6597 H       1  UNL1        0.0661
     43 H           5.7950    4.6737    5.9122 H       1  UNL1        0.0661
     44 H           2.5395    0.5666    4.5097 H       1  UNL1        0.0637
     45 H           1.4895   -1.5617    3.8578 H       1  UNL1        0.0638
@<TRIPOS>BOND
     1     1     2    1
     2     1    26    1
     3     1    27    1
     4     1    28    1
     5     2     3    1
     6     3     4    1
     7     3    29    1
     8     3    30    1
     9     4     5    1
    10     4    31    1
    11     4    32    1
    12     5     6    1
    13    12     5    1
    14     6     7    1
    15     6    33    1
    16     6    34    1
    17     7    11   ar
    18     7     8   ar
    19     8     9   ar
    20     8    35    1
    21     9    10   ar
    22    10    11   ar
    23    10    36    1
    24    11    37    1
    25    12    13    2
    26    12    14    2
    27    12    15    1
    28    15    25   ar
    29    15    16   ar
    30    16    17   ar
    31    16    38    1
    32    17    18   ar
    33    17    39    1
    34    18    19    1
    35    18    24   ar
    36    19    20   am
    37    19    40    1
    38    20    21    2
    39    20    22    1
    40    22    23    1
    41    23    41    1
    42    23    42    1
    43    23    43    1
    44    24    25   ar
    45    24    44    1
    46    25    45    1
