@<TRIPOS>MOLECULE
ZINC000004985929
 47 49 0 0 0
SMALL
GASTEIGER

@<TRIPOS>ATOM
      1 C          -0.0078    1.5779   -0.1864 C.3     1  UNL1       -0.0312
      2 C          -0.0505    0.0894    0.1649 C.3     1  UNL1        0.0978
      3 H           0.4958   -0.4807   -0.5865 H       1  UNL1        0.0685
      4 N          -1.4461   -0.3674    0.2146 N.am    1  UNL1       -0.2673
      5 C          -2.4335   -0.0447   -0.6441 C.2     1  UNL1        0.3062
      6 O          -2.2561    0.8244   -1.4756 O.2     1  UNL1       -0.2524
      7 N          -3.6175   -0.6855   -0.5811 N.am    1  UNL1       -0.2811
      8 C          -4.7559   -0.2566   -1.4090 C.3     1  UNL1        0.0396
      9 C          -5.3150   -1.4849   -2.1360 C.3     1  UNL1        0.0635
     10 O          -5.5768   -2.5175   -1.1825 O.3     1  UNL1       -0.3767
     11 C          -4.4151   -2.9865   -0.4939 C.3     1  UNL1        0.0635
     12 C          -3.8082   -1.8385    0.3130 C.3     1  UNL1        0.0396
     13 C          -1.5507   -1.2500    1.3925 C.3     1  UNL1        0.0321
     14 C          -0.4685   -0.7219    2.3549 C.3     1  UNL1        0.0384
     15 N           0.5556   -0.1246    1.4850 N.3     1  UNL1       -0.1549
     16 S           2.1128    0.2397    1.9146 S.O2    1  UNL1        0.0625
     17 O           2.5497    1.2528    1.0190 O.2     1  UNL1       -0.1528
     18 O           2.1129    0.3980    3.3268 O.2     1  UNL1       -0.1528
     19 C           3.0945   -1.1832    1.5734 C.ar    1  UNL1        0.1061
     20 C           3.2657   -2.1533    2.5428 C.ar    1  UNL1       -0.0353
     21 C           4.0360   -3.2697    2.2751 C.ar    1  UNL1       -0.0594
     22 C           4.6344   -3.4160    1.0378 C.ar    1  UNL1       -0.0500
     23 C           4.4624   -2.4460    0.0678 C.ar    1  UNL1        0.0567
     24 C           5.1152   -2.6052   -1.2811 C.3     1  UNL1        0.4175
     25 F           5.8366   -3.8034   -1.3115 F       1  UNL1       -0.1659
     26 F           4.1315   -2.6278   -2.2756 F       1  UNL1       -0.1659
     27 F           5.9836   -1.5321   -1.5085 F       1  UNL1       -0.1659
     28 C           3.6888   -1.3319    0.3340 C.ar    1  UNL1       -0.0237
     29 H           1.0276    1.9182   -0.2014 H       1  UNL1        0.0261
     30 H          -0.4553    1.7325   -1.1682 H       1  UNL1        0.0261
     31 H          -0.5654    2.1435    0.5601 H       1  UNL1        0.0261
     32 H          -5.5285    0.1776   -0.7743 H       1  UNL1        0.0488
     33 H          -4.4220    0.4813   -2.1385 H       1  UNL1        0.0488
     34 H          -6.2406   -1.2166   -2.6453 H       1  UNL1        0.0575
     35 H          -4.5867   -1.8391   -2.8654 H       1  UNL1        0.0575
     36 H          -4.6931   -3.7984    0.1781 H       1  UNL1        0.0575
     37 H          -3.6834   -3.3461   -1.2174 H       1  UNL1        0.0575
     38 H          -2.8479   -2.1475    0.7260 H       1  UNL1        0.0488
     39 H          -4.4840   -1.5610    1.1220 H       1  UNL1        0.0488
     40 H          -2.5385   -1.1663    1.8457 H       1  UNL1        0.0479
     41 H          -1.3433   -2.2834    1.1148 H       1  UNL1        0.0479
     42 H          -0.8882    0.0339    3.0188 H       1  UNL1        0.0460
     43 H          -0.0436   -1.5419    2.9338 H       1  UNL1        0.0460
     44 H           2.7981   -2.0390    3.5096 H       1  UNL1        0.0637
     45 H           4.1703   -4.0275    3.0328 H       1  UNL1        0.0618
     46 H           5.2367   -4.2878    0.8289 H       1  UNL1        0.0623
     47 H           3.5544   -0.5742   -0.4238 H       1  UNL1        0.0642
@<TRIPOS>BOND
     1     1     2    1
     2     1    29    1
     3     1    30    1
     4     1    31    1
     5     2     3    1
     6     2    15    1
     7     2     4    1
     8     4     5   am
     9     4    13    1
    10     5     6    2
    11     5     7   am
    12     7    12    1
    13     7     8    1
    14     8     9    1
    15     8    32    1
    16     8    33    1
    17     9    10    1
    18     9    34    1
    19     9    35    1
    20    10    11    1
    21    11    12    1
    22    11    36    1
    23    11    37    1
    24    12    38    1
    25    12    39    1
    26    13    14    1
    27    13    40    1
    28    13    41    1
    29    14    15    1
    30    14    42    1
    31    14    43    1
    32    16    15    1
    33    16    17    2
    34    16    18    2
    35    16    19    1
    36    19    28   ar
    37    19    20   ar
    38    20    21   ar
    39    20    44    1
    40    21    22   ar
    41    21    45    1
    42    22    23   ar
    43    22    46    1
    44    23    24    1
    45    23    28   ar
    46    24    25    1
    47    24    26    1
    48    24    27    1
    49    28    47    1
