@<TRIPOS>MOLECULE
ZINC000011613777
 40 41 0 0 0
SMALL
GASTEIGER

@<TRIPOS>ATOM
      1 N          -0.0162    1.3436    0.0094 N.am    1  UNL1       -0.3291
      2 C           0.0021   -0.0041    0.0020 C.2     1  UNL1        0.2137
      3 O           1.0605   -0.5961   -0.0113 O.2     1  UNL1       -0.2757
      4 C          -1.2926   -0.7753    0.0102 C.3     1  UNL1        0.0378
      5 C          -2.1125   -0.4083   -1.2288 C.3     1  UNL1       -0.0274
      6 C          -3.4426   -1.1678   -1.1994 C.3     1  UNL1        0.0212
      7 N          -3.1641   -2.6040   -1.0637 N.3     1  UNL1       -0.1765
      8 S          -3.8008   -3.6921   -2.1375 S.O2    1  UNL1        0.0609
      9 O          -3.8348   -4.9446   -1.4671 O.2     1  UNL1       -0.1528
     10 O          -4.9543   -3.0775   -2.6952 O.2     1  UNL1       -0.1528
     11 C          -2.6427   -3.8639   -3.4543 C.ar    1  UNL1        0.1065
     12 C          -2.7212   -3.0333   -4.5565 C.ar    1  UNL1       -0.0237
     13 C          -1.8127   -3.1681   -5.5896 C.ar    1  UNL1        0.0572
     14 C          -1.8985   -2.2629   -6.7914 C.3     1  UNL1        0.4175
     15 F          -1.1230   -1.1197   -6.5705 F       1  UNL1       -0.1659
     16 F          -1.4217   -2.9391   -7.9195 F       1  UNL1       -0.1659
     17 F          -3.2306   -1.8897   -6.9999 F       1  UNL1       -0.1659
     18 C          -0.8251   -4.1329   -5.5201 C.ar    1  UNL1       -0.0384
     19 C          -0.7464   -4.9632   -4.4177 C.ar    1  UNL1        0.0572
     20 C           0.3299   -6.0153   -4.3422 C.3     1  UNL1        0.4175
     21 F           1.1201   -5.9577   -5.4952 F       1  UNL1       -0.1659
     22 F           1.1290   -5.7849   -3.2172 F       1  UNL1       -0.1659
     23 F          -0.2602   -7.2799   -4.2439 F       1  UNL1       -0.1659
     24 C          -1.6523   -4.8256   -3.3827 C.ar    1  UNL1       -0.0237
     25 C          -2.3097   -3.0565    0.0427 C.3     1  UNL1        0.0212
     26 C          -0.9923   -2.2759   -0.0007 C.3     1  UNL1       -0.0274
     27 H           0.8172    1.8399    0.0041 H       1  UNL1        0.1449
     28 H          -0.8627    1.8171    0.0160 H       1  UNL1        0.1449
     29 H          -1.8588   -0.5247    0.9073 H       1  UNL1        0.0395
     30 H          -2.3061    0.6643   -1.2325 H       1  UNL1        0.0285
     31 H          -1.5574   -0.6814   -2.1263 H       1  UNL1        0.0285
     32 H          -4.0380   -0.8293   -0.3515 H       1  UNL1        0.0444
     33 H          -3.9871   -0.9872   -2.1262 H       1  UNL1        0.0444
     34 H          -3.4925   -2.2793   -4.6107 H       1  UNL1        0.0642
     35 H          -0.1153   -4.2382   -6.3273 H       1  UNL1        0.0629
     36 H          -1.5908   -5.4743   -2.5214 H       1  UNL1        0.0642
     37 H          -2.8127   -2.8720    0.9919 H       1  UNL1        0.0444
     38 H          -2.1067   -4.1221   -0.0646 H       1  UNL1        0.0444
     39 H          -0.4478   -2.5313   -0.9097 H       1  UNL1        0.0285
     40 H          -0.3886   -2.5324    0.8698 H       1  UNL1        0.0285
@<TRIPOS>BOND
     1     1     2   am
     2     1    27    1
     3     1    28    1
     4     2     3    2
     5     2     4    1
     6     4    26    1
     7     4     5    1
     8     4    29    1
     9     5     6    1
    10     5    30    1
    11     5    31    1
    12     6     7    1
    13     6    32    1
    14     6    33    1
    15     8     7    1
    16     7    25    1
    17     8     9    2
    18     8    10    2
    19     8    11    1
    20    11    24   ar
    21    11    12   ar
    22    12    13   ar
    23    12    34    1
    24    13    14    1
    25    13    18   ar
    26    14    15    1
    27    14    16    1
    28    14    17    1
    29    18    19   ar
    30    18    35    1
    31    19    20    1
    32    19    24   ar
    33    20    21    1
    34    20    22    1
    35    20    23    1
    36    24    36    1
    37    25    26    1
    38    25    37    1
    39    25    38    1
    40    26    39    1
    41    26    40    1
