@<TRIPOS>MOLECULE
ZINC000006111937
 57 58 0 0 0
SMALL
GASTEIGER

@<TRIPOS>ATOM
      1 C          -0.0173    1.4248    0.0099 C.3     1  UNL1        0.0364
      2 O           0.0021   -0.0041    0.0020 O.3     1  UNL1       -0.3829
      3 C          -1.2953   -0.6030    0.0112 C.3     1  UNL1        0.0485
      4 C          -1.1538   -2.1264    0.0017 C.3     1  UNL1       -0.0150
      5 C          -2.5429   -2.7677    0.0115 C.3     1  UNL1        0.0231
      6 N          -2.4075   -4.2264    0.0023 N.3     1  UNL1       -0.1677
      7 C          -2.2176   -4.9523    1.2606 C.3     1  UNL1        0.0968
      8 C          -3.5592   -5.2254    1.8904 C.2     1  UNL1        0.2288
      9 O          -4.5740   -4.8505    1.3422 O.2     1  UNL1       -0.2743
     10 N          -3.6312   -5.8861    3.0629 N.am    1  UNL1       -0.3139
     11 C          -4.9354   -6.1516    3.6751 C.3     1  UNL1        0.0156
     12 C          -4.7371   -6.9097    4.9892 C.3     1  UNL1       -0.0121
     13 C          -6.0787   -7.1828    5.6190 C.ar    1  UNL1       -0.0457
     14 C          -6.6303   -6.2647    6.4934 C.ar    1  UNL1       -0.0551
     15 C          -7.8600   -6.5127    7.0721 C.ar    1  UNL1       -0.0197
     16 C          -8.5416   -7.6838    6.7748 C.ar    1  UNL1        0.1201
     17 O          -9.7517   -7.9299    7.3424 O.3     1  UNL1       -0.4951
     18 C         -10.3961   -9.1558    6.9904 C.3     1  UNL1        0.0788
     19 C          -7.9862   -8.6032    5.8968 C.ar    1  UNL1       -0.0197
     20 C          -6.7584   -8.3483    5.3170 C.ar    1  UNL1       -0.0551
     21 S          -2.4690   -5.0547   -1.4303 S.O2    1  UNL1        0.0613
     22 O          -3.0080   -6.3349   -1.1307 O.2     1  UNL1       -0.1528
     23 O          -3.0478   -4.1707   -2.3804 O.2     1  UNL1       -0.1528
     24 C          -0.8067   -5.3237   -1.9490 C.ar    1  UNL1        0.1055
     25 C          -0.1718   -4.3899   -2.7464 C.ar    1  UNL1       -0.0353
     26 C           1.1323   -4.6009   -3.1534 C.ar    1  UNL1       -0.0599
     27 C           1.8017   -5.7455   -2.7626 C.ar    1  UNL1       -0.0616
     28 C           1.1671   -6.6789   -1.9645 C.ar    1  UNL1       -0.0599
     29 C          -0.1356   -6.4658   -1.5540 C.ar    1  UNL1       -0.0353
     30 H           1.0053    1.8021    0.0021 H       1  UNL1        0.0523
     31 H          -0.5445    1.7859   -0.8732 H       1  UNL1        0.0523
     32 H          -0.5275    1.7763    0.9067 H       1  UNL1        0.0523
     33 H          -1.8320   -0.2936    0.9080 H       1  UNL1        0.0560
     34 H          -1.8490   -0.2840   -0.8718 H       1  UNL1        0.0560
     35 H          -0.6171   -2.4359   -0.8952 H       1  UNL1        0.0300
     36 H          -0.6001   -2.4454    0.8847 H       1  UNL1        0.0300
     37 H          -3.0796   -2.4582    0.9083 H       1  UNL1        0.0445
     38 H          -3.0966   -2.4487   -0.8716 H       1  UNL1        0.0445
     39 H          -1.7103   -5.8965    1.0624 H       1  UNL1        0.0539
     40 H          -1.6132   -4.3507    1.9395 H       1  UNL1        0.0539
     41 H          -2.8196   -6.1859    3.5013 H       1  UNL1        0.1487
     42 H          -5.4427   -5.2074    3.8734 H       1  UNL1        0.0465
     43 H          -5.5398   -6.7532    2.9962 H       1  UNL1        0.0465
     44 H          -4.2298   -7.8539    4.7910 H       1  UNL1        0.0328
     45 H          -4.1327   -6.3081    5.6681 H       1  UNL1        0.0328
     46 H          -6.0992   -5.3531    6.7245 H       1  UNL1        0.0621
     47 H          -8.2901   -5.7956    7.7556 H       1  UNL1        0.0654
     48 H         -11.3508   -9.2271    7.5116 H       1  UNL1        0.0660
     49 H         -10.5670   -9.1805    5.9142 H       1  UNL1        0.0660
     50 H          -9.7621   -9.9949    7.2770 H       1  UNL1        0.0660
     51 H          -8.5148   -9.5158    5.6640 H       1  UNL1        0.0654
     52 H          -6.3258   -9.0635    4.6332 H       1  UNL1        0.0621
     53 H          -0.6948   -3.4956   -3.0517 H       1  UNL1        0.0637
     54 H           1.6281   -3.8717   -3.7770 H       1  UNL1        0.0618
     55 H           2.8203   -5.9108   -3.0812 H       1  UNL1        0.0618
     56 H           1.6899   -7.5733   -1.6595 H       1  UNL1        0.0618
     57 H          -0.6314   -7.1950   -0.9304 H       1  UNL1        0.0637
@<TRIPOS>BOND
     1     1     2    1
     2     1    30    1
     3     1    31    1
     4     1    32    1
     5     2     3    1
     6     3     4    1
     7     3    33    1
     8     3    34    1
     9     4     5    1
    10     4    35    1
    11     4    36    1
    12     5     6    1
    13     5    37    1
    14     5    38    1
    15     6     7    1
    16    21     6    1
    17     7     8    1
    18     7    39    1
    19     7    40    1
    20     8     9    2
    21     8    10   am
    22    10    11    1
    23    10    41    1
    24    11    12    1
    25    11    42    1
    26    11    43    1
    27    12    13    1
    28    12    44    1
    29    12    45    1
    30    13    20   ar
    31    13    14   ar
    32    14    15   ar
    33    14    46    1
    34    15    16   ar
    35    15    47    1
    36    16    17    1
    37    16    19   ar
    38    17    18    1
    39    18    48    1
    40    18    49    1
    41    18    50    1
    42    19    20   ar
    43    19    51    1
    44    20    52    1
    45    21    22    2
    46    21    23    2
    47    21    24    1
    48    24    29   ar
    49    24    25   ar
    50    25    26   ar
    51    25    53    1
    52    26    27   ar
    53    26    54    1
    54    27    28   ar
    55    27    55    1
    56    28    29   ar
    57    28    56    1
    58    29    57    1
