@<TRIPOS>MOLECULE
ZINC000408600762
 53 54 0 0 0
SMALL
GASTEIGER

@<TRIPOS>ATOM
      1 C          -0.0187    1.5258    0.0104 C.3     1  UNL1       -0.0507
      2 C           0.0021   -0.0041    0.0020 C.3     1  UNL1        0.0177
      3 N           0.7106   -0.4894    1.1889 N.3     1  UNL1       -0.1771
      4 C          -0.0062   -0.6460    2.4569 C.3     1  UNL1        0.0177
      5 C          -0.6935   -2.0126    2.4888 C.3     1  UNL1       -0.0507
      6 S           2.3218   -0.8609    1.0971 S.O2    1  UNL1        0.0608
      7 O           2.5823   -1.7795    2.1496 O.2     1  UNL1       -0.1528
      8 O           2.5905   -1.1471   -0.2686 O.2     1  UNL1       -0.1528
      9 C           3.2182    0.6060    1.4837 C.ar    1  UNL1        0.1057
     10 C           3.5682    1.4865    0.4768 C.ar    1  UNL1       -0.0319
     11 C           4.2709    2.6372    0.7772 C.ar    1  UNL1       -0.0181
     12 C           4.6251    2.9093    2.0907 C.ar    1  UNL1        0.1213
     13 O           5.3160    4.0409    2.3889 O.3     1  UNL1       -0.4828
     14 C           5.6468    4.2561    3.7624 C.3     1  UNL1        0.1651
     15 C           6.4063    5.5505    3.8993 C.2     1  UNL1        0.2507
     16 O           6.6411    6.2226    2.9174 O.2     1  UNL1       -0.2721
     17 N           6.8245    5.9613    5.1129 N.am    1  UNL1       -0.3122
     18 C           7.5628    7.2197    5.2460 C.3     1  UNL1        0.0157
     19 C           7.9169    7.4501    6.7165 C.3     1  UNL1       -0.0121
     20 C           8.6764    8.7445    6.8534 C.ar    1  UNL1       -0.0459
     21 C          10.0552    8.7507    6.7545 C.ar    1  UNL1       -0.0585
     22 C          10.7518    9.9380    6.8801 C.ar    1  UNL1       -0.0615
     23 C          10.0696   11.1193    7.1042 C.ar    1  UNL1       -0.0617
     24 C           8.6908   11.1132    7.2022 C.ar    1  UNL1       -0.0615
     25 C           7.9938    9.9265    7.0723 C.ar    1  UNL1       -0.0585
     26 C           4.2723    2.0244    3.0993 C.ar    1  UNL1       -0.0181
     27 C           3.5654    0.8775    2.7942 C.ar    1  UNL1       -0.0319
     28 H           1.0039    1.9031    0.0027 H       1  UNL1        0.0243
     29 H          -0.5459    1.8868   -0.8726 H       1  UNL1        0.0243
     30 H          -0.5289    1.8773    0.9072 H       1  UNL1        0.0243
     31 H          -1.0205   -0.3814    0.0098 H       1  UNL1        0.0441
     32 H           0.5123   -0.3556   -0.8948 H       1  UNL1        0.0441
     33 H           0.6997   -0.5749    3.2845 H       1  UNL1        0.0441
     34 H          -0.7557    0.1399    2.5501 H       1  UNL1        0.0441
     35 H          -1.3993   -2.0837    1.6613 H       1  UNL1        0.0243
     36 H           0.0560   -2.7985    2.3957 H       1  UNL1        0.0243
     37 H          -1.2268   -2.1291    3.4323 H       1  UNL1        0.0243
     38 H           3.2922    1.2742   -0.5456 H       1  UNL1        0.0638
     39 H           4.5447    3.3243   -0.0097 H       1  UNL1        0.0655
     40 H           4.7320    4.3074    4.3527 H       1  UNL1        0.0795
     41 H           6.2647    3.4327    4.1206 H       1  UNL1        0.0795
     42 H           6.6366    5.4238    5.8982 H       1  UNL1        0.1488
     43 H           8.4776    7.1684    4.6557 H       1  UNL1        0.0465
     44 H           6.9449    8.0431    4.8878 H       1  UNL1        0.0465
     45 H           7.0021    7.5014    7.3068 H       1  UNL1        0.0328
     46 H           8.5348    6.6267    7.0747 H       1  UNL1        0.0328
     47 H          10.5882    7.8278    6.5794 H       1  UNL1        0.0620
     48 H          11.8291    9.9428    6.8035 H       1  UNL1        0.0618
     49 H          10.6139   12.0468    7.2030 H       1  UNL1        0.0618
     50 H           8.1578   12.0360    7.3776 H       1  UNL1        0.0618
     51 H           6.9166    9.9218    7.1489 H       1  UNL1        0.0620
     52 H           4.5471    2.2339    4.1225 H       1  UNL1        0.0655
     53 H           3.2902    0.1885    3.5791 H       1  UNL1        0.0638
@<TRIPOS>BOND
     1     1     2    1
     2     1    28    1
     3     1    29    1
     4     1    30    1
     5     2     3    1
     6     2    31    1
     7     2    32    1
     8     3     4    1
     9     6     3    1
    10     4     5    1
    11     4    33    1
    12     4    34    1
    13     5    35    1
    14     5    36    1
    15     5    37    1
    16     6     7    2
    17     6     8    2
    18     6     9    1
    19     9    27   ar
    20     9    10   ar
    21    10    11   ar
    22    10    38    1
    23    11    12   ar
    24    11    39    1
    25    12    13    1
    26    12    26   ar
    27    13    14    1
    28    14    15    1
    29    14    40    1
    30    14    41    1
    31    15    16    2
    32    15    17   am
    33    17    18    1
    34    17    42    1
    35    18    19    1
    36    18    43    1
    37    18    44    1
    38    19    20    1
    39    19    45    1
    40    19    46    1
    41    20    25   ar
    42    20    21   ar
    43    21    22   ar
    44    21    47    1
    45    22    23   ar
    46    22    48    1
    47    23    24   ar
    48    23    49    1
    49    24    25   ar
    50    24    50    1
    51    25    51    1
    52    26    27   ar
    53    26    52    1
    54    27    53    1
