@<TRIPOS>MOLECULE
ZINC000053895125
 37 38 0 0 0
SMALL
GASTEIGER

@<TRIPOS>ATOM
      1 N          -0.0162    1.3436    0.0094 N.am    1  UNL1       -0.3291
      2 C           0.0021   -0.0041    0.0020 C.2     1  UNL1        0.2151
      3 O           1.0605   -0.5961   -0.0113 O.2     1  UNL1       -0.2757
      4 C          -1.2926   -0.7753    0.0102 C.3     1  UNL1        0.0525
      5 H          -1.8976   -0.5198   -0.8597 H       1  UNL1        0.0410
      6 C          -1.0218   -2.3021    0.0613 C.3     1  UNL1       -0.0246
      7 C          -2.3171   -2.8256    0.7306 C.3     1  UNL1        0.0155
      8 N          -2.6678   -1.7986    1.7284 N.am    1  UNL1       -0.2979
      9 C          -3.4104   -1.9998    2.8350 C.2     1  UNL1        0.2532
     10 O          -3.6366   -1.0775    3.5894 O.2     1  UNL1       -0.2719
     11 C          -3.9596   -3.3707    3.1348 C.3     1  UNL1        0.1653
     12 O          -4.7069   -3.3287    4.3522 O.3     1  UNL1       -0.4828
     13 C          -5.2738   -4.4915    4.7686 C.ar    1  UNL1        0.1212
     14 C          -5.1092   -5.6504    4.0240 C.ar    1  UNL1       -0.0194
     15 C          -5.6861   -6.8313    4.4497 C.ar    1  UNL1       -0.0467
     16 C          -6.4272   -6.8587    5.6166 C.ar    1  UNL1        0.0550
     17 C          -7.0558   -8.1481    6.0784 C.3     1  UNL1        0.4174
     18 F          -6.1603   -8.8329    6.9069 F       1  UNL1       -0.1659
     19 F          -8.2275   -7.8674    6.7894 F       1  UNL1       -0.1659
     20 F          -7.3631   -8.9412    4.9676 F       1  UNL1       -0.1659
     21 C          -6.5923   -5.7051    6.3608 C.ar    1  UNL1       -0.0467
     22 C          -6.0131   -4.5229    5.9421 C.ar    1  UNL1       -0.0194
     23 C          -2.0749   -0.5149    1.3148 C.3     1  UNL1        0.0259
     24 H           0.8172    1.8399    0.0041 H       1  UNL1        0.1449
     25 H          -0.8627    1.8171    0.0160 H       1  UNL1        0.1449
     26 H          -0.9072   -2.7124   -0.9421 H       1  UNL1        0.0288
     27 H          -0.1482   -2.5237    0.6743 H       1  UNL1        0.0288
     28 H          -3.1126   -2.9242   -0.0080 H       1  UNL1        0.0465
     29 H          -2.1316   -3.7819    1.2196 H       1  UNL1        0.0465
     30 H          -4.6103   -3.6877    2.3198 H       1  UNL1        0.0795
     31 H          -3.1362   -4.0774    3.2382 H       1  UNL1        0.0795
     32 H          -4.5310   -5.6294    3.1121 H       1  UNL1        0.0654
     33 H          -5.5583   -7.7338    3.8704 H       1  UNL1        0.0624
     34 H          -7.1714   -5.7291    7.2721 H       1  UNL1        0.0624
     35 H          -6.1423   -3.6221    6.5237 H       1  UNL1        0.0654
     36 H          -1.3947   -0.1549    2.0867 H       1  UNL1        0.0472
     37 H          -2.8625    0.2181    1.1405 H       1  UNL1        0.0472
@<TRIPOS>BOND
     1     1     2   am
     2     1    24    1
     3     1    25    1
     4     2     3    2
     5     2     4    1
     6     4     5    1
     7     4    23    1
     8     4     6    1
     9     6     7    1
    10     6    26    1
    11     6    27    1
    12     7     8    1
    13     7    28    1
    14     7    29    1
    15     8     9   am
    16     8    23    1
    17     9    10    2
    18     9    11    1
    19    11    12    1
    20    11    30    1
    21    11    31    1
    22    12    13    1
    23    13    22   ar
    24    13    14   ar
    25    14    15   ar
    26    14    32    1
    27    15    16   ar
    28    15    33    1
    29    16    17    1
    30    16    21   ar
    31    17    18    1
    32    17    19    1
    33    17    20    1
    34    21    22   ar
    35    21    34    1
    36    22    35    1
    37    23    36    1
    38    23    37    1
