@<TRIPOS>MOLECULE
ZINC000032999966
 53 55 0 0 0
SMALL
GASTEIGER

@<TRIPOS>ATOM
      1 C          -0.0187    1.5258    0.0104 C.3     1  UNL1       -0.0466
      2 C           0.0021   -0.0041    0.0020 C.3     1  UNL1        0.0206
      3 H           0.5123   -0.3556   -0.8948 H       1  UNL1        0.0495
      4 C          -1.4333   -0.5336    0.0129 C.3     1  UNL1       -0.0308
      5 C          -1.4157   -2.0577   -0.1212 C.3     1  UNL1       -0.0260
      6 C          -2.8295   -2.5793   -0.1105 C.ar    1  UNL1       -0.0473
      7 C          -3.4324   -2.9175    1.0866 C.ar    1  UNL1       -0.0586
      8 C          -4.7292   -3.3959    1.0964 C.ar    1  UNL1       -0.0615
      9 C          -5.4233   -3.5358   -0.0908 C.ar    1  UNL1       -0.0617
     10 C          -4.8208   -3.1967   -1.2878 C.ar    1  UNL1       -0.0615
     11 C          -3.5254   -2.7142   -1.2973 C.ar    1  UNL1       -0.0586
     12 N           0.7106   -0.4894    1.1889 N.am    1  UNL1       -0.3124
     13 C           2.0538   -0.5998    1.1737 C.2     1  UNL1        0.2181
     14 O           2.6758   -0.2974    0.1774 O.2     1  UNL1       -0.2754
     15 C           2.7826   -1.0990    2.3946 C.3     1  UNL1        0.0554
     16 C           4.2638   -1.1281    2.1185 C.ar    1  UNL1        0.0004
     17 C           5.1088   -0.1218    2.3481 C.ar    1  UNL1       -0.0492
     18 C           6.4273   -0.3798    2.0150 C.ar    1  UNL1       -0.0278
     19 C           6.6532   -1.5955    1.5148 C.ar    1  UNL1        0.1429
     20 S           8.2243   -2.2078    1.0036 S.O2    1  UNL1        0.0671
     21 O           7.9656   -3.2448    0.0672 O.2     1  UNL1       -0.1523
     22 O           9.0200   -1.0695    0.7026 O.2     1  UNL1       -0.1523
     23 N           8.9211   -2.9302    2.3208 N.3     1  UNL1       -0.1761
     24 C           9.7805   -2.2628    3.3095 C.3     1  UNL1        0.0206
     25 C          10.2147   -3.3315    4.3347 C.3     1  UNL1       -0.0373
     26 C          10.0369   -4.6582    3.5502 C.3     1  UNL1       -0.0373
     27 C           8.7773   -4.3477    2.6996 C.3     1  UNL1        0.0206
     28 S           5.1442   -2.4968    1.4512 S.2     1  UNL1       -0.0730
     29 H           1.0039    1.9031    0.0027 H       1  UNL1        0.0247
     30 H          -0.5459    1.8868   -0.8726 H       1  UNL1        0.0247
     31 H          -0.5289    1.8773    0.9072 H       1  UNL1        0.0247
     32 H          -1.9156   -0.2570    0.9504 H       1  UNL1        0.0286
     33 H          -1.9862   -0.1019   -0.8214 H       1  UNL1        0.0286
     34 H          -0.9334   -2.3344   -1.0587 H       1  UNL1        0.0314
     35 H          -0.8628   -2.4894    0.7131 H       1  UNL1        0.0314
     36 H          -2.8901   -2.8082    2.0141 H       1  UNL1        0.0620
     37 H          -5.2000   -3.6608    2.0316 H       1  UNL1        0.0618
     38 H          -6.4363   -3.9103   -0.0832 H       1  UNL1        0.0618
     39 H          -5.3630   -3.3063   -2.2154 H       1  UNL1        0.0618
     40 H          -3.0546   -2.4493   -2.2324 H       1  UNL1        0.0620
     41 H           0.2131   -0.7312    1.9857 H       1  UNL1        0.1490
     42 H           2.5826   -0.4337    3.2345 H       1  UNL1        0.0412
     43 H           2.4385   -2.1044    2.6374 H       1  UNL1        0.0412
     44 H           4.7883    0.8228    2.7622 H       1  UNL1        0.0626
     45 H           7.2136    0.3483    2.1495 H       1  UNL1        0.0643
     46 H          10.6577   -1.8445    2.8160 H       1  UNL1        0.0444
     47 H           9.2229   -1.4723    3.8118 H       1  UNL1        0.0444
     48 H          11.2567   -3.1898    4.6216 H       1  UNL1        0.0278
     49 H           9.5663   -3.3115    5.2107 H       1  UNL1        0.0278
     50 H          10.9013   -4.8562    2.9164 H       1  UNL1        0.0278
     51 H           9.8526   -5.4914    4.2283 H       1  UNL1        0.0278
     52 H           7.8739   -4.4980    3.2907 H       1  UNL1        0.0444
     53 H           8.7572   -4.9749    1.8084 H       1  UNL1        0.0444
@<TRIPOS>BOND
     1     1     2    1
     2     1    29    1
     3     1    30    1
     4     1    31    1
     5     2     3    1
     6     2     4    1
     7     2    12    1
     8     4     5    1
     9     4    32    1
    10     4    33    1
    11     5     6    1
    12     5    34    1
    13     5    35    1
    14     6    11   ar
    15     6     7   ar
    16     7     8   ar
    17     7    36    1
    18     8     9   ar
    19     8    37    1
    20     9    10   ar
    21     9    38    1
    22    10    11   ar
    23    10    39    1
    24    11    40    1
    25    12    13   am
    26    12    41    1
    27    13    14    2
    28    13    15    1
    29    15    16    1
    30    15    42    1
    31    15    43    1
    32    16    28   ar
    33    16    17   ar
    34    17    18   ar
    35    17    44    1
    36    18    19   ar
    37    18    45    1
    38    19    20    1
    39    19    28   ar
    40    20    21    2
    41    20    22    2
    42    20    23    1
    43    23    27    1
    44    23    24    1
    45    24    25    1
    46    24    46    1
    47    24    47    1
    48    25    26    1
    49    25    48    1
    50    25    49    1
    51    26    27    1
    52    26    50    1
    53    26    51    1
    54    27    52    1
    55    27    53    1
