@<TRIPOS>MOLECULE
ZINC000022228432
 57 58 0 0 0
SMALL
GASTEIGER

@<TRIPOS>ATOM
      1 C          -0.0187    1.5258    0.0104 C.3     1  UNL1       -0.0507
      2 C           0.0021   -0.0041    0.0020 C.3     1  UNL1        0.0177
      3 N           0.6878   -0.4765   -1.2033 N.3     1  UNL1       -0.1771
      4 C           2.1478   -0.5966   -1.2159 C.3     1  UNL1        0.0177
      5 C           2.5532   -1.9514   -0.6319 C.3     1  UNL1       -0.0507
      6 S          -0.1875   -0.8749   -2.5515 S.O2    1  UNL1        0.0608
      7 O           0.6166   -1.7761   -3.3001 O.2     1  UNL1       -0.1528
      8 O          -1.4970   -1.1925   -2.1004 O.2     1  UNL1       -0.1528
      9 C          -0.3375    0.5853   -3.5262 C.ar    1  UNL1        0.1055
     10 C          -1.4057    1.4405   -3.3300 C.ar    1  UNL1       -0.0351
     11 C          -1.5234    2.5861   -4.0947 C.ar    1  UNL1       -0.0567
     12 C          -0.5727    2.8767   -5.0552 C.ar    1  UNL1       -0.0458
     13 C          -0.7013    4.1253   -5.8892 C.3     1  UNL1       -0.0120
     14 C           0.0204    5.2805   -5.1924 C.3     1  UNL1        0.0160
     15 N          -0.1047    6.4943   -6.0031 N.am    1  UNL1       -0.3073
     16 C           0.4570    7.6455   -5.5839 C.2     1  UNL1        0.2990
     17 O           1.0662    7.6766   -4.5348 O.2     1  UNL1       -0.2652
     18 C           0.3295    8.8838   -6.4109 C.2     1  UNL1        0.2990
     19 O          -0.2798    8.8527   -7.4599 O.2     1  UNL1       -0.2652
     20 N           0.8911   10.0350   -5.9917 N.am    1  UNL1       -0.3051
     21 C           0.7661   11.2488   -6.8024 C.3     1  UNL1        0.0383
     22 C           1.4877   12.4041   -6.1056 C.3     1  UNL1        0.0742
     23 H           2.5417   12.1627   -5.9676 H       1  UNL1        0.0611
     24 C           1.3379   13.7073   -6.9302 C.3     1  UNL1       -0.0231
     25 C           1.5240   14.7800   -5.8227 C.3     1  UNL1       -0.0271
     26 C           0.8811   14.0988   -4.5955 C.3     1  UNL1        0.0482
     27 O           0.8709   12.6860   -4.8393 O.3     1  UNL1       -0.3750
     28 C           0.4962    2.0221   -5.2504 C.ar    1  UNL1       -0.0567
     29 C           0.6160    0.8786   -4.4831 C.ar    1  UNL1       -0.0351
     30 H           1.0039    1.9031    0.0027 H       1  UNL1        0.0243
     31 H          -0.5459    1.8868   -0.8726 H       1  UNL1        0.0243
     32 H          -0.5289    1.8773    0.9072 H       1  UNL1        0.0243
     33 H           0.5293   -0.3651    0.8851 H       1  UNL1        0.0441
     34 H          -1.0205   -0.3814    0.0098 H       1  UNL1        0.0441
     35 H           2.5098   -0.5199   -2.2412 H       1  UNL1        0.0441
     36 H           2.5833    0.2026   -0.6162 H       1  UNL1        0.0441
     37 H           2.1177   -2.7506   -1.2316 H       1  UNL1        0.0243
     38 H           3.6395   -2.0407   -0.6413 H       1  UNL1        0.0243
     39 H           2.1912   -2.0280    0.3934 H       1  UNL1        0.0243
     40 H          -2.1485    1.2135   -2.5796 H       1  UNL1        0.0637
     41 H          -2.3583    3.2539   -3.9419 H       1  UNL1        0.0621
     42 H          -0.2543    3.9556   -6.8687 H       1  UNL1        0.0328
     43 H          -1.7555    4.3750   -6.0092 H       1  UNL1        0.0328
     44 H          -0.4267    5.4502   -4.2129 H       1  UNL1        0.0465
     45 H           1.0745    5.0308   -5.0723 H       1  UNL1        0.0465
     46 H          -0.5916    6.4695   -6.8416 H       1  UNL1        0.1492
     47 H           1.3781   10.0598   -5.1531 H       1  UNL1        0.1492
     48 H           1.2131   11.0791   -7.7819 H       1  UNL1        0.0487
     49 H          -0.2881   11.4986   -6.9224 H       1  UNL1        0.0487
     50 H           2.1182   13.7849   -7.6874 H       1  UNL1        0.0291
     51 H           0.3477   13.7755   -7.3807 H       1  UNL1        0.0291
     52 H           2.5816   14.9770   -5.6473 H       1  UNL1        0.0288
     53 H           0.9946   15.6977   -6.0787 H       1  UNL1        0.0288
     54 H           1.4685   14.3143   -3.7030 H       1  UNL1        0.0560
     55 H          -0.1390   14.4598   -4.4644 H       1  UNL1        0.0560
     56 H           1.2392    2.2494   -6.0006 H       1  UNL1        0.0621
     57 H           1.4511    0.2109   -4.6357 H       1  UNL1        0.0637
@<TRIPOS>BOND
     1     1     2    1
     2     1    30    1
     3     1    31    1
     4     1    32    1
     5     2     3    1
     6     2    33    1
     7     2    34    1
     8     3     4    1
     9     6     3    1
    10     4     5    1
    11     4    35    1
    12     4    36    1
    13     5    37    1
    14     5    38    1
    15     5    39    1
    16     6     7    2
    17     6     8    2
    18     6     9    1
    19     9    29   ar
    20     9    10   ar
    21    10    11   ar
    22    10    40    1
    23    11    12   ar
    24    11    41    1
    25    12    13    1
    26    12    28   ar
    27    13    14    1
    28    13    42    1
    29    13    43    1
    30    14    15    1
    31    14    44    1
    32    14    45    1
    33    15    16   am
    34    15    46    1
    35    16    17    2
    36    16    18    1
    37    18    19    2
    38    18    20   am
    39    20    21    1
    40    20    47    1
    41    21    22    1
    42    21    48    1
    43    21    49    1
    44    22    23    1
    45    22    27    1
    46    22    24    1
    47    24    25    1
    48    24    50    1
    49    24    51    1
    50    25    26    1
    51    25    52    1
    52    25    53    1
    53    26    27    1
    54    26    54    1
    55    26    55    1
    56    28    29   ar
    57    28    56    1
    58    29    57    1
