@<TRIPOS>MOLECULE
ZINC000016661481
 55 56 0 0 0
SMALL
GASTEIGER

@<TRIPOS>ATOM
      1 C          -0.0178    1.4608    0.0101 C.3     1  UNL1        0.0086
      2 N           0.0021   -0.0041    0.0020 N.3     1  UNL1       -0.1827
      3 C           0.0241   -0.7433    1.2666 C.3     1  UNL1        0.0086
      4 S          -0.0004   -0.8243   -1.4366 S.O2    1  UNL1        0.0604
      5 O          -0.5247   -2.1160   -1.1611 O.2     1  UNL1       -0.1529
      6 O          -0.5660    0.0551   -2.3989 O.2     1  UNL1       -0.1529
      7 C           1.6816   -1.0597   -1.9056 C.ar    1  UNL1        0.1055
      8 C           2.3234   -0.1095   -2.6777 C.ar    1  UNL1       -0.0351
      9 C           3.6430   -0.2942   -3.0457 C.ar    1  UNL1       -0.0567
     10 C           4.3210   -1.4289   -2.6412 C.ar    1  UNL1       -0.0468
     11 C           5.7594   -1.6304   -3.0428 C.3     1  UNL1       -0.0194
     12 C           6.6758   -1.0157   -1.9829 C.3     1  UNL1        0.0279
     13 C           8.1142   -1.2173   -2.3845 C.2     1  UNL1        0.2135
     14 O           8.3803   -1.7957   -3.4168 O.2     1  UNL1       -0.2758
     15 N           9.1050   -0.7549   -1.5965 N.am    1  UNL1       -0.3124
     16 C          10.5034   -0.9508   -1.9869 C.3     1  UNL1        0.0231
     17 C          10.9303    0.1720   -2.9343 C.3     1  UNL1       -0.0345
     18 C          12.4572    0.2072   -3.0277 C.3     1  UNL1       -0.0514
     19 C          12.9405   -0.9427   -3.9138 C.3     1  UNL1       -0.0530
     20 C          12.8577   -2.2565   -3.1342 C.3     1  UNL1       -0.0531
     21 C          13.3982   -2.0454   -1.7186 C.3     1  UNL1       -0.0530
     22 C          12.2570   -2.1902   -0.7098 C.3     1  UNL1       -0.0514
     23 C          11.3886   -0.9308   -0.7393 C.3     1  UNL1       -0.0345
     24 C           3.6797   -2.3784   -1.8680 C.ar    1  UNL1       -0.0567
     25 C           2.3612   -2.1919   -1.4968 C.ar    1  UNL1       -0.0351
     26 H           1.0048    1.8381    0.0023 H       1  UNL1        0.0408
     27 H          -0.5450    1.8219   -0.8730 H       1  UNL1        0.0408
     28 H          -0.5280    1.8123    0.9069 H       1  UNL1        0.0408
     29 H           0.0224   -0.0395    2.0990 H       1  UNL1        0.0408
     30 H          -0.8567   -1.3823    1.3294 H       1  UNL1        0.0408
     31 H           0.9230   -1.3581    1.3125 H       1  UNL1        0.0408
     32 H           1.7936    0.7771   -2.9938 H       1  UNL1        0.0637
     33 H           4.1441    0.4479   -3.6495 H       1  UNL1        0.0621
     34 H           5.9668   -2.6971   -3.1279 H       1  UNL1        0.0318
     35 H           5.9396   -1.1475   -4.0032 H       1  UNL1        0.0318
     36 H           6.4684    0.0510   -1.8978 H       1  UNL1        0.0361
     37 H           6.4956   -1.4987   -1.0225 H       1  UNL1        0.0361
     38 H           8.8922   -0.2923   -0.7709 H       1  UNL1        0.1490
     39 H          10.6085   -1.9113   -2.4915 H       1  UNL1        0.0498
     40 H          10.5098   -0.0078   -3.9237 H       1  UNL1        0.0283
     41 H          10.5675    1.1266   -2.5533 H       1  UNL1        0.0283
     42 H          12.7730    1.1566   -3.4602 H       1  UNL1        0.0266
     43 H          12.8848    0.1021   -2.0306 H       1  UNL1        0.0266
     44 H          12.3112   -1.0067   -4.8015 H       1  UNL1        0.0265
     45 H          13.9731   -0.7620   -4.2126 H       1  UNL1        0.0265
     46 H          11.8189   -2.5827   -3.0815 H       1  UNL1        0.0265
     47 H          13.4520   -3.0173   -3.6402 H       1  UNL1        0.0265
     48 H          14.1659   -2.7899   -1.5081 H       1  UNL1        0.0265
     49 H          13.8287   -1.0472   -1.6393 H       1  UNL1        0.0265
     50 H          11.6493   -3.0569   -0.9703 H       1  UNL1        0.0266
     51 H          12.6703   -2.3233    0.2899 H       1  UNL1        0.0266
     52 H          12.0285   -0.0487   -0.7620 H       1  UNL1        0.0283
     53 H          10.7607   -0.9014    0.1512 H       1  UNL1        0.0283
     54 H           4.2095   -3.2648   -1.5516 H       1  UNL1        0.0621
     55 H           1.8602   -2.9338   -0.8927 H       1  UNL1        0.0637
@<TRIPOS>BOND
     1     1     2    1
     2     1    26    1
     3     1    27    1
     4     1    28    1
     5     2     3    1
     6     4     2    1
     7     3    29    1
     8     3    30    1
     9     3    31    1
    10     4     5    2
    11     4     6    2
    12     4     7    1
    13     7    25   ar
    14     7     8   ar
    15     8     9   ar
    16     8    32    1
    17     9    10   ar
    18     9    33    1
    19    10    11    1
    20    10    24   ar
    21    11    12    1
    22    11    34    1
    23    11    35    1
    24    12    13    1
    25    12    36    1
    26    12    37    1
    27    13    14    2
    28    13    15   am
    29    15    16    1
    30    15    38    1
    31    16    23    1
    32    16    17    1
    33    16    39    1
    34    17    18    1
    35    17    40    1
    36    17    41    1
    37    18    19    1
    38    18    42    1
    39    18    43    1
    40    19    20    1
    41    19    44    1
    42    19    45    1
    43    20    21    1
    44    20    46    1
    45    20    47    1
    46    21    22    1
    47    21    48    1
    48    21    49    1
    49    22    23    1
    50    22    50    1
    51    22    51    1
    52    23    52    1
    53    23    53    1
    54    24    25   ar
    55    24    54    1
    56    25    55    1
