@<TRIPOS>MOLECULE
ZINC000096446586
 40 41 0 0 0
SMALL
GASTEIGER

@<TRIPOS>ATOM
      1 C          -0.1497    1.3618    0.0920 C.3     1  UNL1        0.0368
      2 O          -0.1010   -0.0661    0.0633 O.3     1  UNL1       -0.3797
      3 C           0.5661   -0.6020   -1.0811 C.3     1  UNL1        0.0608
      4 C           2.0566   -0.7633   -0.7734 C.3     1  UNL1       -0.0121
      5 C           2.7741   -1.3054   -2.0136 C.3     1  UNL1        0.0228
      6 N           2.1089   -2.5436   -2.4414 N.3     1  UNL1       -0.1764
      7 S           2.9768   -3.9379   -2.6535 S.O2    1  UNL1        0.0611
      8 O           2.1761   -4.7901   -3.4608 O.2     1  UNL1       -0.1528
      9 O           4.2935   -3.5405   -3.0108 O.2     1  UNL1       -0.1528
     10 C           3.1028   -4.7184   -1.0788 C.ar    1  UNL1        0.1089
     11 C           4.3239   -4.7814   -0.4344 C.ar    1  UNL1       -0.0235
     12 C           4.4227   -5.3938    0.8011 C.ar    1  UNL1        0.0567
     13 C           5.7543   -5.4629    1.5035 C.3     1  UNL1        0.4175
     14 F           5.9143   -4.3324    2.3119 F       1  UNL1       -0.1659
     15 F           5.8039   -6.6142    2.2967 F       1  UNL1       -0.1659
     16 F           6.7807   -5.5062    0.5539 F       1  UNL1       -0.1659
     17 C           3.3002   -5.9422    1.3924 C.ar    1  UNL1       -0.0498
     18 C           2.0787   -5.8788    0.7481 C.ar    1  UNL1       -0.0565
     19 C           1.9790   -5.2628   -0.4852 C.ar    1  UNL1       -0.0241
     20 C           0.6475   -5.1936   -1.1875 C.3     1  UNL1       -0.0379
     21 C           0.6588   -2.5213   -2.6772 C.3     1  UNL1        0.0228
     22 C          -0.0351   -1.9656   -1.4296 C.3     1  UNL1       -0.0121
     23 H           0.8650    1.7600    0.0954 H       1  UNL1        0.0524
     24 H          -0.6796    1.7250   -0.7885 H       1  UNL1        0.0524
     25 H          -0.6716    1.6896    0.9910 H       1  UNL1        0.0524
     26 H           0.4411    0.0764   -1.9251 H       1  UNL1        0.0596
     27 H           2.4789    0.2043   -0.5026 H       1  UNL1        0.0303
     28 H           2.1837   -1.4609    0.0545 H       1  UNL1        0.0303
     29 H           2.7254   -0.5685   -2.8152 H       1  UNL1        0.0445
     30 H           3.8157   -1.5155   -1.7704 H       1  UNL1        0.0445
     31 H           5.2009   -4.3525   -0.8963 H       1  UNL1        0.0643
     32 H           3.3775   -6.4206    2.3576 H       1  UNL1        0.0623
     33 H           1.2016   -6.3076    1.2099 H       1  UNL1        0.0621
     34 H           0.1751   -4.2341   -0.9771 H       1  UNL1        0.0278
     35 H           0.7978   -5.2967   -2.2622 H       1  UNL1        0.0278
     36 H           0.0065   -6.0001   -0.8313 H       1  UNL1        0.0278
     37 H           0.4375   -1.8835   -3.5330 H       1  UNL1        0.0445
     38 H           0.3047   -3.5336   -2.8720 H       1  UNL1        0.0445
     39 H           0.1118   -2.6518   -0.5956 H       1  UNL1        0.0303
     40 H          -1.1014   -1.8536   -1.6258 H       1  UNL1        0.0303
@<TRIPOS>BOND
     1     1     2    1
     2     1    23    1
     3     1    24    1
     4     1    25    1
     5     2     3    1
     6     3    22    1
     7     3     4    1
     8     3    26    1
     9     4     5    1
    10     4    27    1
    11     4    28    1
    12     5     6    1
    13     5    29    1
    14     5    30    1
    15     7     6    1
    16     6    21    1
    17     7     8    2
    18     7     9    2
    19     7    10    1
    20    10    19   ar
    21    10    11   ar
    22    11    12   ar
    23    11    31    1
    24    12    13    1
    25    12    17   ar
    26    13    14    1
    27    13    15    1
    28    13    16    1
    29    17    18   ar
    30    17    32    1
    31    18    19   ar
    32    18    33    1
    33    19    20    1
    34    20    34    1
    35    20    35    1
    36    20    36    1
    37    21    22    1
    38    21    37    1
    39    21    38    1
    40    22    39    1
    41    22    40    1
