@<TRIPOS>MOLECULE
ZINC000009096930
 61 62 0 0 0
SMALL
GASTEIGER

@<TRIPOS>ATOM
      1 C          -0.0187    1.5258    0.0104 C.3     1  UNL1       -0.0507
      2 C           0.0021   -0.0041    0.0020 C.3     1  UNL1        0.0177
      3 N           0.7106   -0.4894    1.1889 N.3     1  UNL1       -0.1771
      4 C          -0.0062   -0.6460    2.4569 C.3     1  UNL1        0.0177
      5 C          -0.6935   -2.0126    2.4888 C.3     1  UNL1       -0.0507
      6 S           2.3218   -0.8609    1.0971 S.O2    1  UNL1        0.0608
      7 O           2.5823   -1.7795    2.1496 O.2     1  UNL1       -0.1528
      8 O           2.5905   -1.1471   -0.2686 O.2     1  UNL1       -0.1528
      9 C           3.2182    0.6060    1.4837 C.ar    1  UNL1        0.1055
     10 C           3.5675    1.4857    0.4745 C.ar    1  UNL1       -0.0346
     11 C           4.2692    2.6360    0.7701 C.ar    1  UNL1       -0.0459
     12 C           4.6270    2.9115    2.0913 C.ar    1  UNL1        0.0591
     13 C           5.3781    4.1416    2.4155 C.2     1  UNL1        0.3396
     14 O           5.6858    4.9160    1.5317 O.2     1  UNL1       -0.2449
     15 O           5.7217    4.4045    3.6912 O.3     1  UNL1       -0.4517
     16 C           6.4588    5.6313    3.9359 C.3     1  UNL1        0.1684
     17 C           6.7531    5.7552    5.4087 C.2     1  UNL1        0.2510
     18 O           6.3785    4.8944    6.1765 O.2     1  UNL1       -0.2721
     19 N           7.4326    6.8227    5.8726 N.am    1  UNL1       -0.3099
     20 C           7.7187    6.9432    7.3044 C.3     1  UNL1        0.0207
     21 H           7.9020    5.9535    7.7228 H       1  UNL1        0.0495
     22 C           6.5219    7.5822    8.0116 C.3     1  UNL1       -0.0466
     23 C           8.9570    7.8192    7.5051 C.3     1  UNL1       -0.0308
     24 C          10.1788    7.1201    6.9056 C.3     1  UNL1       -0.0260
     25 C          11.3984    7.9829    7.1033 C.ar    1  UNL1       -0.0473
     26 C          11.7459    8.9183    6.1466 C.ar    1  UNL1       -0.0586
     27 C          12.8646    9.7097    6.3279 C.ar    1  UNL1       -0.0615
     28 C          13.6357    9.5662    7.4662 C.ar    1  UNL1       -0.0617
     29 C          13.2877    8.6315    8.4234 C.ar    1  UNL1       -0.0615
     30 C          12.1666    7.8430    8.2441 C.ar    1  UNL1       -0.0586
     31 C           4.2712    2.0194    3.1048 C.ar    1  UNL1       -0.0459
     32 C           3.5646    0.8757    2.7959 C.ar    1  UNL1       -0.0346
     33 H           1.0039    1.9031    0.0027 H       1  UNL1        0.0243
     34 H          -0.5459    1.8868   -0.8726 H       1  UNL1        0.0243
     35 H          -0.5289    1.8773    0.9072 H       1  UNL1        0.0243
     36 H          -1.0205   -0.3814    0.0098 H       1  UNL1        0.0441
     37 H           0.5123   -0.3556   -0.8948 H       1  UNL1        0.0441
     38 H           0.6997   -0.5749    3.2845 H       1  UNL1        0.0441
     39 H          -0.7557    0.1399    2.5501 H       1  UNL1        0.0441
     40 H          -1.2268   -2.1291    3.4323 H       1  UNL1        0.0243
     41 H          -1.3993   -2.0837    1.6613 H       1  UNL1        0.0243
     42 H           0.0560   -2.7985    2.3957 H       1  UNL1        0.0243
     43 H           3.2904    1.2712   -0.5471 H       1  UNL1        0.0637
     44 H           4.5415    3.3216   -0.0187 H       1  UNL1        0.0626
     45 H           7.3955    5.6096    3.3788 H       1  UNL1        0.0796
     46 H           5.8627    6.4842    3.6115 H       1  UNL1        0.0796
     47 H           7.7323    7.5112    5.2586 H       1  UNL1        0.1491
     48 H           6.3385    8.5718    7.5932 H       1  UNL1        0.0247
     49 H           5.6397    6.9581    7.8686 H       1  UNL1        0.0247
     50 H           6.7347    7.6718    9.0768 H       1  UNL1        0.0247
     51 H           8.8076    8.7784    7.0095 H       1  UNL1        0.0286
     52 H           9.1180    7.9820    8.5708 H       1  UNL1        0.0286
     53 H          10.3281    6.1609    7.4012 H       1  UNL1        0.0314
     54 H          10.0178    6.9573    5.8399 H       1  UNL1        0.0314
     55 H          11.1435    9.0304    5.2572 H       1  UNL1        0.0620
     56 H          13.1365   10.4399    5.5801 H       1  UNL1        0.0618
     57 H          14.5102   10.1840    7.6076 H       1  UNL1        0.0618
     58 H          13.8903    8.5191    9.3126 H       1  UNL1        0.0618
     59 H          11.8947    7.1128    8.9919 H       1  UNL1        0.0620
     60 H           4.5449    2.2266    4.1288 H       1  UNL1        0.0626
     61 H           3.2888    0.1848    3.5788 H       1  UNL1        0.0637
@<TRIPOS>BOND
     1     1     2    1
     2     1    33    1
     3     1    34    1
     4     1    35    1
     5     2     3    1
     6     2    36    1
     7     2    37    1
     8     3     4    1
     9     6     3    1
    10     4     5    1
    11     4    38    1
    12     4    39    1
    13     5    40    1
    14     5    41    1
    15     5    42    1
    16     6     7    2
    17     6     8    2
    18     6     9    1
    19     9    32   ar
    20     9    10   ar
    21    10    11   ar
    22    10    43    1
    23    11    12   ar
    24    11    44    1
    25    12    13    1
    26    12    31   ar
    27    13    14    2
    28    13    15    1
    29    15    16    1
    30    16    17    1
    31    16    45    1
    32    16    46    1
    33    17    18    2
    34    17    19   am
    35    19    20    1
    36    19    47    1
    37    20    21    1
    38    20    22    1
    39    20    23    1
    40    22    48    1
    41    22    49    1
    42    22    50    1
    43    23    24    1
    44    23    51    1
    45    23    52    1
    46    24    25    1
    47    24    53    1
    48    24    54    1
    49    25    30   ar
    50    25    26   ar
    51    26    27   ar
    52    26    55    1
    53    27    28   ar
    54    27    56    1
    55    28    29   ar
    56    28    57    1
    57    29    30   ar
    58    29    58    1
    59    30    59    1
    60    31    32   ar
    61    31    60    1
    62    32    61    1
