@<TRIPOS>MOLECULE
ZINC000408988862
 54 56 0 0 0
SMALL
GASTEIGER

@<TRIPOS>ATOM
      1 O           0.0021   -0.0041    0.0020 O.2     1  UNL1       -0.2743
      2 C          -0.0144    1.2086    0.0087 C.2     1  UNL1        0.2289
      3 C           1.2803    1.9798    0.0005 C.3     1  UNL1        0.0968
      4 N           2.4066    1.0431   -0.0153 N.3     1  UNL1       -0.1675
      5 C           2.8870    0.4965   -1.2868 C.3     1  UNL1        0.0250
      6 C           3.8806    1.4732   -1.9190 C.3     1  UNL1       -0.0132
      7 C           4.3747    0.9110   -3.2269 C.ar    1  UNL1       -0.0461
      8 C           5.4974    0.1048   -3.2526 C.ar    1  UNL1       -0.0585
      9 C           5.9506   -0.4110   -4.4523 C.ar    1  UNL1       -0.0615
     10 C           5.2810   -0.1209   -5.6264 C.ar    1  UNL1       -0.0617
     11 C           4.1578    0.6845   -5.6006 C.ar    1  UNL1       -0.0615
     12 C           3.7020    1.1967   -4.4002 C.ar    1  UNL1       -0.0585
     13 S           3.1367    0.6021    1.4041 S.O2    1  UNL1        0.0613
     14 O           4.4947    0.3274    1.0884 O.2     1  UNL1       -0.1528
     15 O           2.7433    1.5638    2.3734 O.2     1  UNL1       -0.1528
     16 C           2.4227   -0.9292    1.9041 C.ar    1  UNL1        0.1056
     17 C           1.3003   -0.9374    2.7111 C.ar    1  UNL1       -0.0343
     18 C           0.7396   -2.1383    3.1032 C.ar    1  UNL1       -0.0459
     19 C           1.3016   -3.3321    2.6881 C.ar    1  UNL1        0.0180
     20 BR          0.5346   -4.9755    3.2237 Br      1  UNL1       -0.0503
     21 C           2.4247   -3.3234    1.8806 C.ar    1  UNL1       -0.0459
     22 C           2.9817   -2.1220    1.4847 C.ar    1  UNL1       -0.0343
     23 N          -1.1906    1.8666    0.0178 N.am    1  UNL1       -0.3117
     24 C          -2.4492    1.1169    0.0197 C.3     1  UNL1        0.0379
     25 C          -3.6255    2.0952    0.0306 C.3     1  UNL1        0.0742
     26 H          -3.5231    2.7871    0.8666 H       1  UNL1        0.0611
     27 C          -4.9530    1.3168    0.1546 C.3     1  UNL1       -0.0231
     28 C          -5.8894    2.1083   -0.7986 C.3     1  UNL1       -0.0271
     29 C          -4.8891    2.5440   -1.8988 C.3     1  UNL1        0.0482
     30 O          -3.6626    2.8243   -1.2018 O.3     1  UNL1       -0.3750
     31 H           1.3211    2.6120   -0.8866 H       1  UNL1        0.0539
     32 H           1.3381    2.6024    0.8933 H       1  UNL1        0.0539
     33 H           3.3803   -0.4590   -1.1083 H       1  UNL1        0.0447
     34 H           2.0432    0.3494   -1.9610 H       1  UNL1        0.0447
     35 H           3.3872    2.4287   -2.0974 H       1  UNL1        0.0326
     36 H           4.7243    1.6203   -1.2448 H       1  UNL1        0.0326
     37 H           6.0205   -0.1218   -2.3353 H       1  UNL1        0.0620
     38 H           6.8281   -1.0402   -4.4725 H       1  UNL1        0.0618
     39 H           5.6355   -0.5233   -6.5638 H       1  UNL1        0.0618
     40 H           3.6348    0.9113   -6.5179 H       1  UNL1        0.0618
     41 H           2.8245    1.8260   -4.3801 H       1  UNL1        0.0620
     42 H           0.8617   -0.0053    3.0355 H       1  UNL1        0.0637
     43 H          -0.1371   -2.1447    3.7340 H       1  UNL1        0.0629
     44 H           2.8639   -4.2552    1.5562 H       1  UNL1        0.0629
     45 H           3.8585   -2.1151    0.8542 H       1  UNL1        0.0637
     46 H          -1.2037    2.8365    0.0232 H       1  UNL1        0.1488
     47 H          -2.5027    0.4944   -0.8734 H       1  UNL1        0.0487
     48 H          -2.4943    0.4847    0.9065 H       1  UNL1        0.0487
     49 H          -4.8328    0.2883   -0.1856 H       1  UNL1        0.0291
     50 H          -5.3262    1.3469    1.1783 H       1  UNL1        0.0291
     51 H          -6.6680    1.4648   -1.2081 H       1  UNL1        0.0288
     52 H          -6.3216    2.9734   -0.2957 H       1  UNL1        0.0288
     53 H          -4.7413    1.7373   -2.6167 H       1  UNL1        0.0560
     54 H          -5.2493    3.4401   -2.4042 H       1  UNL1        0.0560
@<TRIPOS>BOND
     1     1     2    2
     2     2     3    1
     3     2    23   am
     4     3     4    1
     5     3    31    1
     6     3    32    1
     7     4     5    1
     8    13     4    1
     9     5     6    1
    10     5    33    1
    11     5    34    1
    12     6     7    1
    13     6    35    1
    14     6    36    1
    15     7    12   ar
    16     7     8   ar
    17     8     9   ar
    18     8    37    1
    19     9    10   ar
    20     9    38    1
    21    10    11   ar
    22    10    39    1
    23    11    12   ar
    24    11    40    1
    25    12    41    1
    26    13    14    2
    27    13    15    2
    28    13    16    1
    29    16    22   ar
    30    16    17   ar
    31    17    18   ar
    32    17    42    1
    33    18    19   ar
    34    18    43    1
    35    19    20    1
    36    19    21   ar
    37    21    22   ar
    38    21    44    1
    39    22    45    1
    40    23    24    1
    41    23    46    1
    42    24    25    1
    43    24    47    1
    44    24    48    1
    45    25    26    1
    46    25    30    1
    47    25    27    1
    48    27    28    1
    49    27    49    1
    50    27    50    1
    51    28    29    1
    52    28    51    1
    53    28    52    1
    54    29    30    1
    55    29    53    1
    56    29    54    1
