@<TRIPOS>MOLECULE
ZINC000009365369
 34 35 0 0 0
SMALL
GASTEIGER

@<TRIPOS>ATOM
      1 N          -2.7214   -4.8115   -1.7788 N.am    1  UNL1       -0.3280
      2 C          -2.5661   -3.7898   -0.9136 C.2     1  UNL1        0.2294
      3 O          -3.2078   -3.7635    0.1152 O.2     1  UNL1       -0.2743
      4 C          -1.5950   -2.6802   -1.2245 C.3     1  UNL1        0.1076
      5 H          -0.7588   -3.0712   -1.8042 H       1  UNL1        0.0575
      6 C          -2.3083   -1.5656   -2.0185 C.3     1  UNL1       -0.0260
      7 C          -2.6734   -0.5344   -0.9181 C.3     1  UNL1       -0.0366
      8 C          -1.4551   -0.6486    0.0318 C.3     1  UNL1        0.0214
      9 N          -1.1013   -2.0830    0.0250 N.3     1  UNL1       -0.1647
     10 S          -0.2888   -2.8824    1.2263 S.O2    1  UNL1        0.0615
     11 O          -0.5342   -2.1607    2.4256 O.2     1  UNL1       -0.1528
     12 O          -0.5980   -4.2606    1.0715 O.2     1  UNL1       -0.1528
     13 C           1.4330   -2.7180    0.8901 C.ar    1  UNL1        0.1055
     14 C           2.0646   -3.6243    0.0592 C.ar    1  UNL1       -0.0348
     15 C           3.4154   -3.4953   -0.2046 C.ar    1  UNL1       -0.0483
     16 C           4.1345   -2.4597    0.3623 C.ar    1  UNL1        0.0549
     17 C           5.6072   -2.3194    0.0752 C.3     1  UNL1        0.4174
     18 F           5.7874   -1.5147   -1.0549 F       1  UNL1       -0.1659
     19 F           6.2424   -1.7299    1.1735 F       1  UNL1       -0.1659
     20 F           6.1591   -3.5834   -0.1596 F       1  UNL1       -0.1659
     21 C           3.5026   -1.5526    1.1922 C.ar    1  UNL1       -0.0483
     22 C           2.1510   -1.6793    1.4529 C.ar    1  UNL1       -0.0348
     23 H          -3.3465   -5.5257   -1.5787 H       1  UNL1        0.1450
     24 H          -2.2111   -4.8305   -2.6035 H       1  UNL1        0.1450
     25 H          -1.6349   -1.1237   -2.7529 H       1  UNL1        0.0286
     26 H          -3.2073   -1.9501   -2.5002 H       1  UNL1        0.0286
     27 H          -2.7515    0.4700   -1.3344 H       1  UNL1        0.0279
     28 H          -3.5944   -0.8168   -0.4081 H       1  UNL1        0.0279
     29 H          -0.6237   -0.0525   -0.3443 H       1  UNL1        0.0444
     30 H          -1.7273   -0.3296    1.0379 H       1  UNL1        0.0444
     31 H           1.5028   -4.4334   -0.3837 H       1  UNL1        0.0637
     32 H           3.9090   -4.2038   -0.8532 H       1  UNL1        0.0624
     33 H           4.0644   -0.7433    1.6348 H       1  UNL1        0.0624
     34 H           1.6573   -0.9706    2.1012 H       1  UNL1        0.0637
@<TRIPOS>BOND
     1     1     2   am
     2     1    23    1
     3     1    24    1
     4     2     3    2
     5     2     4    1
     6     4     5    1
     7     4     9    1
     8     4     6    1
     9     6     7    1
    10     6    25    1
    11     6    26    1
    12     7     8    1
    13     7    27    1
    14     7    28    1
    15     8     9    1
    16     8    29    1
    17     8    30    1
    18    10     9    1
    19    10    11    2
    20    10    12    2
    21    10    13    1
    22    13    22   ar
    23    13    14   ar
    24    14    15   ar
    25    14    31    1
    26    15    16   ar
    27    15    32    1
    28    16    17    1
    29    16    21   ar
    30    17    18    1
    31    17    19    1
    32    17    20    1
    33    21    22   ar
    34    21    33    1
    35    22    34    1
