@<TRIPOS>MOLECULE
ZINC000158195877
 41 42 0 0 0
SMALL
GASTEIGER

@<TRIPOS>ATOM
      1 C           0.2617    1.4963   -0.1503 C.3     1  UNL1       -0.0130
      2 C           0.0022   -0.0038    0.0020 C.3     1  UNL1        0.0505
      3 H          -1.0561   -0.1710    0.2023 H       1  UNL1        0.0946
      4 N           0.3811   -0.6947   -1.2378 N.4     1  UNL1        0.2272
      5 H           1.3608   -0.5399   -1.4232 H       1  UNL1        0.2002
      6 H           0.2100   -1.6840   -1.1373 H       1  UNL1        0.2002
      7 H          -0.1673   -0.3347   -2.0045 H       1  UNL1        0.2002
      8 C           0.8213   -0.5415    1.1471 C.2     1  UNL1        0.2634
      9 O           1.8410   -1.1595    0.9256 O.2     1  UNL1       -0.2694
     10 N           0.4205   -0.3355    2.4173 N.am    1  UNL1       -0.2968
     11 C          -0.8691    0.3092    2.7002 C.3     1  UNL1        0.0154
     12 C          -1.6732   -0.5900    3.6445 C.3     1  UNL1       -0.0303
     13 C          -0.8360   -0.8939    4.8891 C.3     1  UNL1       -0.0130
     14 C          -1.6367   -1.7504    5.8359 C.ar    1  UNL1       -0.0441
     15 C          -2.0877   -2.9927    5.4308 C.ar    1  UNL1       -0.0578
     16 C          -2.8222   -3.7783    6.2993 C.ar    1  UNL1       -0.0499
     17 C          -3.1052   -3.3218    7.5730 C.ar    1  UNL1        0.0548
     18 C          -3.9063   -4.1781    8.5196 C.3     1  UNL1        0.4174
     19 F          -3.0409   -4.9932    9.2571 F       1  UNL1       -0.1659
     20 F          -4.6303   -3.3577    9.3914 F       1  UNL1       -0.1659
     21 F          -4.7914   -4.9783    7.7892 F       1  UNL1       -0.1659
     22 C          -2.6530   -2.0801    7.9786 C.ar    1  UNL1       -0.0499
     23 C          -1.9152   -1.2961    7.1114 C.ar    1  UNL1       -0.0578
     24 C           0.4369   -1.6387    4.4803 C.3     1  UNL1       -0.0303
     25 C           1.2622   -0.7569    3.5455 C.3     1  UNL1        0.0154
     26 H           1.3283    1.6677   -0.2950 H       1  UNL1        0.0289
     27 H          -0.2874    1.8742   -1.0128 H       1  UNL1        0.0289
     28 H          -0.0712    2.0157    0.7483 H       1  UNL1        0.0289
     29 H          -0.6982    1.2760    3.1736 H       1  UNL1        0.0465
     30 H          -1.4202    0.4477    1.7701 H       1  UNL1        0.0465
     31 H          -2.5906   -0.0803    3.9388 H       1  UNL1        0.0286
     32 H          -1.9211   -1.5218    3.1364 H       1  UNL1        0.0286
     33 H          -0.5674    0.0399    5.3830 H       1  UNL1        0.0350
     34 H          -1.8666   -3.3493    4.4356 H       1  UNL1        0.0620
     35 H          -3.1752   -4.7486    5.9825 H       1  UNL1        0.0623
     36 H          -2.8737   -1.7236    8.9739 H       1  UNL1        0.0623
     37 H          -1.5619   -0.3259    7.4283 H       1  UNL1        0.0620
     38 H           1.0213   -1.8754    5.3694 H       1  UNL1        0.0286
     39 H           0.1691   -2.5607    3.9642 H       1  UNL1        0.0286
     40 H           2.1186   -1.3196    3.1739 H       1  UNL1        0.0465
     41 H           1.6078    0.1247    4.0852 H       1  UNL1        0.0465
@<TRIPOS>UNITY_ATOM_ATTR
4 1
charge 1
@<TRIPOS>BOND
     1     1     2    1
     2     1    26    1
     3     1    27    1
     4     1    28    1
     5     2     3    1
     6     2     4    1
     7     2     8    1
     8     4     5    1
     9     4     6    1
    10     4     7    1
    11     8     9    2
    12     8    10   am
    13    10    25    1
    14    10    11    1
    15    11    12    1
    16    11    29    1
    17    11    30    1
    18    12    13    1
    19    12    31    1
    20    12    32    1
    21    13    14    1
    22    13    24    1
    23    13    33    1
    24    14    23   ar
    25    14    15   ar
    26    15    16   ar
    27    15    34    1
    28    16    17   ar
    29    16    35    1
    30    17    18    1
    31    17    22   ar
    32    18    19    1
    33    18    20    1
    34    18    21    1
    35    22    23   ar
    36    22    36    1
    37    23    37    1
    38    24    25    1
    39    24    38    1
    40    24    39    1
    41    25    40    1
    42    25    41    1
