@<TRIPOS>MOLECULE
ZINC000085467233
 42 43 0 0 0
SMALL
GASTEIGER

@<TRIPOS>ATOM
      1 C          -0.0187    1.5258    0.0104 C.3     1  UNL1       -0.0377
      2 C           0.0021   -0.0041    0.0020 C.3     1  UNL1        0.0651
      3 H          -1.0205   -0.3814    0.0098 H       1  UNL1        0.0603
      4 O           0.6709   -0.4649   -1.1737 O.3     1  UNL1       -0.3908
      5 C           0.7421   -0.5109    1.2415 C.3     1  UNL1        0.0248
      6 N           0.7620   -1.9797    1.2335 N.3     1  UNL1       -0.2974
      7 C          -0.5628   -2.5224    0.9044 C.3     1  UNL1        0.0135
      8 C          -0.4597   -4.0411    0.7283 C.3     1  UNL1        0.0333
      9 N           0.1636   -4.6099    1.9329 N.3     1  UNL1       -0.1741
     10 S          -0.5391   -5.8759    2.7365 S.O2    1  UNL1        0.0609
     11 O          -0.0532   -5.8235    4.0709 O.2     1  UNL1       -0.1528
     12 O          -1.9218   -5.8400    2.4109 O.2     1  UNL1       -0.1528
     13 C           0.0995   -7.3595    2.0325 C.ar    1  UNL1        0.1055
     14 C          -0.5418   -7.9463    0.9576 C.ar    1  UNL1       -0.0348
     15 C          -0.0407   -9.1103    0.4052 C.ar    1  UNL1       -0.0483
     16 C           1.1018   -9.6872    0.9274 C.ar    1  UNL1        0.0549
     17 C           1.6477  -10.9563    0.3255 C.3     1  UNL1        0.4174
     18 F           2.5550  -10.6379   -0.6906 F       1  UNL1       -0.1659
     19 F           2.2987  -11.6997    1.3159 F       1  UNL1       -0.1659
     20 F           0.5962  -11.7096   -0.2074 F       1  UNL1       -0.1659
     21 C           1.7439   -9.0996    2.0014 C.ar    1  UNL1       -0.0483
     22 C           1.2450   -7.9336    2.5513 C.ar    1  UNL1       -0.0348
     23 C           1.4279   -4.0248    2.4047 C.3     1  UNL1        0.0333
     24 C           1.2504   -2.5067    2.5148 C.3     1  UNL1        0.0135
     25 H           1.0039    1.9031    0.0027 H       1  UNL1        0.0255
     26 H          -0.5459    1.8868   -0.8726 H       1  UNL1        0.0255
     27 H          -0.5289    1.8773    0.9072 H       1  UNL1        0.0255
     28 H           0.2557   -0.1806   -1.9994 H       1  UNL1        0.2098
     29 H           1.7647   -0.1336    1.2338 H       1  UNL1        0.0452
     30 H           0.2319   -0.1594    2.1383 H       1  UNL1        0.0452
     31 H          -1.2593   -2.2963    1.7118 H       1  UNL1        0.0440
     32 H          -0.9205   -2.0723   -0.0217 H       1  UNL1        0.0440
     33 H          -1.4562   -4.4631    0.5976 H       1  UNL1        0.0456
     34 H           0.1541   -4.2678   -0.1434 H       1  UNL1        0.0456
     35 H          -1.4344   -7.4956    0.5496 H       1  UNL1        0.0637
     36 H          -0.5422   -9.5691   -0.4341 H       1  UNL1        0.0624
     37 H           2.6367   -9.5501    2.4091 H       1  UNL1        0.0624
     38 H           1.7466   -7.4745    3.3904 H       1  UNL1        0.0637
     39 H           1.6793   -4.4359    3.3823 H       1  UNL1        0.0456
     40 H           2.2232   -4.2499    1.6941 H       1  UNL1        0.0456
     41 H           2.2078   -2.0452    2.7566 H       1  UNL1        0.0440
     42 H           0.5287   -2.2808    3.2998 H       1  UNL1        0.0440
@<TRIPOS>BOND
     1     1     2    1
     2     1    25    1
     3     1    26    1
     4     1    27    1
     5     2     3    1
     6     2     4    1
     7     2     5    1
     8     4    28    1
     9     5     6    1
    10     5    29    1
    11     5    30    1
    12     6    24    1
    13     6     7    1
    14     7     8    1
    15     7    31    1
    16     7    32    1
    17     8     9    1
    18     8    33    1
    19     8    34    1
    20    10     9    1
    21     9    23    1
    22    10    11    2
    23    10    12    2
    24    10    13    1
    25    13    22   ar
    26    13    14   ar
    27    14    15   ar
    28    14    35    1
    29    15    16   ar
    30    15    36    1
    31    16    17    1
    32    16    21   ar
    33    17    18    1
    34    17    19    1
    35    17    20    1
    36    21    22   ar
    37    21    37    1
    38    22    38    1
    39    23    24    1
    40    23    39    1
    41    23    40    1
    42    24    41    1
    43    24    42    1
