@<TRIPOS>MOLECULE
ZINC000009806700
 51 53 0 0 0
SMALL
GASTEIGER

@<TRIPOS>ATOM
      1 C           0.4309    1.2050   -0.2214 C.3     1  UNL1        0.0788
      2 O           0.3557   -0.2213   -0.1760 O.3     1  UNL1       -0.4951
      3 C           0.9226   -0.8353    0.8957 C.ar    1  UNL1        0.1202
      4 C           1.5335   -0.0801    1.8863 C.ar    1  UNL1       -0.0181
      5 C           2.1085   -0.7065    2.9749 C.ar    1  UNL1       -0.0319
      6 C           2.0761   -2.0850    3.0776 C.ar    1  UNL1        0.1057
      7 S           2.8110   -2.8810    4.4672 S.O2    1  UNL1        0.0611
      8 O           2.9978   -4.2405    4.0984 O.2     1  UNL1       -0.1528
      9 O           3.8723   -2.0393    4.8968 O.2     1  UNL1       -0.1528
     10 N           1.6886   -2.8768    5.6848 N.3     1  UNL1       -0.1720
     11 C           1.4450   -1.7676    6.6250 C.3     1  UNL1        0.0209
     12 C           0.8162   -2.4364    7.8728 C.3     1  UNL1       -0.0370
     13 C          -0.0674   -3.5352    7.2253 C.3     1  UNL1       -0.0330
     14 C           0.7657   -3.9760    6.0032 C.3     1  UNL1        0.0474
     15 H           1.3353   -4.8729    6.2469 H       1  UNL1        0.0495
     16 C          -0.1587   -4.2535    4.8160 C.3     1  UNL1        0.0291
     17 N          -1.0225   -5.3953    5.1261 N.am    1  UNL1       -0.3098
     18 C          -1.9928   -5.7599    4.2646 C.2     1  UNL1        0.2441
     19 O          -2.0930   -5.2006    3.1901 O.2     1  UNL1       -0.2702
     20 C          -2.9352   -6.8399    4.6266 C.ar    1  UNL1        0.0367
     21 C          -2.8987   -7.4035    5.9030 C.ar    1  UNL1       -0.0491
     22 C          -3.7812   -8.4107    6.2345 C.ar    1  UNL1       -0.0494
     23 C          -4.7008   -8.8626    5.3048 C.ar    1  UNL1        0.0549
     24 C          -5.6615   -9.9635    5.6738 C.3     1  UNL1        0.4174
     25 F          -6.8269   -9.4053    6.2098 F       1  UNL1       -0.1659
     26 F          -5.9822  -10.7049    4.5316 F       1  UNL1       -0.1659
     27 F          -5.0672  -10.8024    6.6226 F       1  UNL1       -0.1659
     28 C          -4.7427   -8.3079    4.0380 C.ar    1  UNL1       -0.0494
     29 C          -3.8693   -7.2965    3.6953 C.ar    1  UNL1       -0.0491
     30 C           1.4675   -2.8398    2.0920 C.ar    1  UNL1       -0.0319
     31 C           0.8863   -2.2179    1.0039 C.ar    1  UNL1       -0.0181
     32 H           1.4762    1.5138   -0.2260 H       1  UNL1        0.0660
     33 H          -0.0586    1.5661   -1.1259 H       1  UNL1        0.0660
     34 H          -0.0676    1.6231    0.6532 H       1  UNL1        0.0660
     35 H           1.5597    0.9966    1.8062 H       1  UNL1        0.0655
     36 H           2.5842   -0.1191    3.7463 H       1  UNL1        0.0638
     37 H           2.3838   -1.2804    6.8883 H       1  UNL1        0.0444
     38 H           0.7516   -1.0475    6.1906 H       1  UNL1        0.0444
     39 H           1.5841   -2.8769    8.5087 H       1  UNL1        0.0279
     40 H           0.2082   -1.7256    8.4324 H       1  UNL1        0.0279
     41 H          -0.2154   -4.3668    7.9143 H       1  UNL1        0.0282
     42 H          -1.0244   -3.1223    6.9064 H       1  UNL1        0.0282
     43 H          -0.7737   -3.3749    4.6214 H       1  UNL1        0.0478
     44 H           0.4406   -4.4801    3.9342 H       1  UNL1        0.0478
     45 H          -0.8961   -5.8890    5.9515 H       1  UNL1        0.1491
     46 H          -2.1808   -7.0521    6.6294 H       1  UNL1        0.0625
     47 H          -3.7540   -8.8476    7.2218 H       1  UNL1        0.0623
     48 H          -5.4632   -8.6650    3.3170 H       1  UNL1        0.0623
     49 H          -3.9032   -6.8641    2.7062 H       1  UNL1        0.0625
     50 H           1.4431   -3.9164    2.1746 H       1  UNL1        0.0638
     51 H           0.4110   -2.8079    0.2343 H       1  UNL1        0.0655
@<TRIPOS>BOND
     1     1     2    1
     2     1    32    1
     3     1    33    1
     4     1    34    1
     5     2     3    1
     6     3    31   ar
     7     3     4   ar
     8     4     5   ar
     9     4    35    1
    10     5     6   ar
    11     5    36    1
    12     6     7    1
    13     6    30   ar
    14     7     8    2
    15     7     9    2
    16     7    10    1
    17    10    14    1
    18    10    11    1
    19    11    12    1
    20    11    37    1
    21    11    38    1
    22    12    13    1
    23    12    39    1
    24    12    40    1
    25    13    14    1
    26    13    41    1
    27    13    42    1
    28    14    15    1
    29    14    16    1
    30    16    17    1
    31    16    43    1
    32    16    44    1
    33    17    18   am
    34    17    45    1
    35    18    19    2
    36    18    20    1
    37    20    29   ar
    38    20    21   ar
    39    21    22   ar
    40    21    46    1
    41    22    23   ar
    42    22    47    1
    43    23    24    1
    44    23    28   ar
    45    24    25    1
    46    24    26    1
    47    24    27    1
    48    28    29   ar
    49    28    48    1
    50    29    49    1
    51    30    31   ar
    52    30    50    1
    53    31    51    1
