@<TRIPOS>MOLECULE
ZINC000027338565
 51 51 0 0 0
SMALL
GASTEIGER

@<TRIPOS>ATOM
      1 C          -0.0187    1.5258    0.0104 C.3     1  UNL1       -0.0636
      2 C           0.0021   -0.0041    0.0020 C.3     1  UNL1       -0.0376
      3 C           0.7421   -0.5109    1.2415 C.3     1  UNL1        0.0200
      4 H           0.2852   -0.0874    2.1360 H       1  UNL1        0.0495
      5 C           0.6554   -2.0374    1.2986 C.3     1  UNL1       -0.0466
      6 N           2.1476   -0.1038    1.1716 N.am    1  UNL1       -0.3127
      7 C           2.8685    0.0265    2.3029 C.2     1  UNL1        0.2135
      8 O           2.3536   -0.1931    3.3788 O.2     1  UNL1       -0.2758
      9 C           4.3144    0.4453    2.2310 C.3     1  UNL1        0.0279
     10 C           4.8956    0.5167    3.6445 C.3     1  UNL1       -0.0194
     11 C           6.3414    0.9354    3.5726 C.ar    1  UNL1       -0.0468
     12 C           7.3330   -0.0208    3.4568 C.ar    1  UNL1       -0.0567
     13 C           8.6593    0.3633    3.3908 C.ar    1  UNL1       -0.0351
     14 C           8.9940    1.7036    3.4402 C.ar    1  UNL1        0.1055
     15 S          10.6845    2.1932    3.3567 S.O2    1  UNL1        0.0608
     16 O          10.7618    3.4746    3.9660 O.2     1  UNL1       -0.1528
     17 O          11.4475    1.0772    3.7945 O.2     1  UNL1       -0.1528
     18 N          11.0528    2.4129    1.7572 N.3     1  UNL1       -0.1771
     19 C          10.8676    3.7270    1.1367 C.3     1  UNL1        0.0177
     20 C          12.1890    4.4975    1.1701 C.3     1  UNL1       -0.0507
     21 C          11.5638    1.2932    0.9626 C.3     1  UNL1        0.0177
     22 C          10.4042    0.6192    0.2264 C.3     1  UNL1       -0.0507
     23 C           8.0023    2.6599    3.5546 C.ar    1  UNL1       -0.0351
     24 C           6.6758    2.2760    3.6167 C.ar    1  UNL1       -0.0567
     25 H           1.0039    1.9031    0.0027 H       1  UNL1        0.0230
     26 H          -0.5459    1.8868   -0.8726 H       1  UNL1        0.0230
     27 H          -0.5289    1.8773    0.9072 H       1  UNL1        0.0230
     28 H          -1.0205   -0.3814    0.0098 H       1  UNL1        0.0280
     29 H           0.5123   -0.3556   -0.8948 H       1  UNL1        0.0280
     30 H           1.1123   -2.4609    0.4042 H       1  UNL1        0.0247
     31 H           1.1826   -2.3985    2.1817 H       1  UNL1        0.0247
     32 H          -0.3904   -2.3402    1.3506 H       1  UNL1        0.0247
     33 H           2.5595    0.0718    0.3111 H       1  UNL1        0.1490
     34 H           4.8747   -0.2826    1.6441 H       1  UNL1        0.0361
     35 H           4.3858    1.4251    1.7588 H       1  UNL1        0.0361
     36 H           4.3353    1.2446    4.2314 H       1  UNL1        0.0318
     37 H           4.8241   -0.4631    4.1167 H       1  UNL1        0.0318
     38 H           7.0715   -1.0679    3.4182 H       1  UNL1        0.0621
     39 H           9.4340   -0.3838    3.3011 H       1  UNL1        0.0637
     40 H          10.5478    3.5988    0.1026 H       1  UNL1        0.0441
     41 H          10.1082    4.2841    1.6854 H       1  UNL1        0.0441
     42 H          12.5088    4.6258    2.2042 H       1  UNL1        0.0243
     43 H          12.9484    3.9404    0.6214 H       1  UNL1        0.0243
     44 H          12.0512    5.4753    0.7084 H       1  UNL1        0.0243
     45 H          12.2886    1.6631    0.2375 H       1  UNL1        0.0441
     46 H          12.0452    0.5702    1.6212 H       1  UNL1        0.0441
     47 H           9.9228    1.3422   -0.4322 H       1  UNL1        0.0243
     48 H          10.7844   -0.2139   -0.3648 H       1  UNL1        0.0243
     49 H           9.6794    0.2493    0.9515 H       1  UNL1        0.0243
     50 H           8.2638    3.7071    3.5928 H       1  UNL1        0.0637
     51 H           5.9011    3.0231    3.7061 H       1  UNL1        0.0621
@<TRIPOS>BOND
     1     1     2    1
     2     1    25    1
     3     1    26    1
     4     1    27    1
     5     2     3    1
     6     2    28    1
     7     2    29    1
     8     3     4    1
     9     3     5    1
    10     3     6    1
    11     5    30    1
    12     5    31    1
    13     5    32    1
    14     6     7   am
    15     6    33    1
    16     7     8    2
    17     7     9    1
    18     9    10    1
    19     9    34    1
    20     9    35    1
    21    10    11    1
    22    10    36    1
    23    10    37    1
    24    11    24   ar
    25    11    12   ar
    26    12    13   ar
    27    12    38    1
    28    13    14   ar
    29    13    39    1
    30    14    15    1
    31    14    23   ar
    32    15    16    2
    33    15    17    2
    34    15    18    1
    35    18    19    1
    36    18    21    1
    37    19    20    1
    38    19    40    1
    39    19    41    1
    40    20    42    1
    41    20    43    1
    42    20    44    1
    43    21    22    1
    44    21    45    1
    45    21    46    1
    46    22    47    1
    47    22    48    1
    48    22    49    1
    49    23    24   ar
    50    23    50    1
    51    24    51    1
