@<TRIPOS>MOLECULE
ZINC000426722728
 47 49 0 0 0
SMALL
GASTEIGER

@<TRIPOS>ATOM
      1 C          -0.0178    1.4648    0.0101 C.3     1  UNL1       -0.0433
      2 N           0.0021   -0.0041    0.0020 N.4     1  UNL1        0.2311
      3 H          -0.9445   -0.3533    0.0092 H       1  UNL1        0.2028
      4 C           0.6897   -0.4778   -1.2066 C.3     1  UNL1       -0.0433
      5 C           0.7126   -0.4907    1.1921 C.3     1  UNL1       -0.0289
      6 C          -0.0711   -0.1034    2.4478 C.3     1  UNL1        0.0083
      7 H          -0.6619    0.8092    2.3697 H       1  UNL1        0.0359
      8 C          -0.6365   -1.2383    3.3041 C.3     1  UNL1       -0.0125
      9 H          -0.5283   -2.2698    2.9687 H       1  UNL1        0.0324
     10 C          -1.8045   -0.9156    4.2609 C.3     1  UNL1        0.0197
     11 N          -1.1501   -0.4550    5.5076 N.am    1  UNL1       -0.2851
     12 C          -1.5090   -0.7254    6.7783 C.2     1  UNL1        0.3025
     13 O          -2.4776   -1.4260    7.0004 O.2     1  UNL1       -0.2526
     14 N          -0.7943   -0.2192    7.8026 N.am    1  UNL1       -0.2951
     15 C          -1.1843   -0.5131    9.1838 C.3     1  UNL1        0.0383
     16 C          -0.2296    0.1669   10.1310 C.ar    1  UNL1       -0.0302
     17 C           0.9114   -0.4900   10.5521 C.ar    1  UNL1       -0.0565
     18 C           1.7872    0.1338   11.4209 C.ar    1  UNL1       -0.0498
     19 C           1.5221    1.4146   11.8683 C.ar    1  UNL1        0.0548
     20 C           2.4766    2.0945   12.8158 C.3     1  UNL1        0.4174
     21 F           3.4369    2.8006   12.0835 F       1  UNL1       -0.1659
     22 F           1.7688    2.9816   13.6339 F       1  UNL1       -0.1659
     23 F           3.1101    1.1323   13.6097 F       1  UNL1       -0.1659
     24 C           0.3818    2.0721   11.4460 C.ar    1  UNL1       -0.0498
     25 C          -0.4920    1.4497   10.5742 C.ar    1  UNL1       -0.0565
     26 C          -0.0118    0.3703    5.0408 C.3     1  UNL1        0.0197
     27 C           0.5682   -0.4158    3.8023 C.3     1  UNL1       -0.0125
     28 H           1.5781   -0.8174    3.8866 H       1  UNL1        0.0324
     29 H           1.0047    1.8421    0.0024 H       1  UNL1        0.0777
     30 H          -0.5450    1.8259   -0.8730 H       1  UNL1        0.0777
     31 H          -0.5280    1.8163    0.9069 H       1  UNL1        0.0777
     32 H           1.7123   -0.1005   -1.2143 H       1  UNL1        0.0777
     33 H           0.7044   -1.5677   -1.2126 H       1  UNL1        0.0777
     34 H           0.1625   -0.1167   -2.0897 H       1  UNL1        0.0777
     35 H           0.8051   -1.5756    1.1418 H       1  UNL1        0.0817
     36 H           1.7055   -0.0428    1.2310 H       1  UNL1        0.0817
     37 H          -2.4291   -0.1251    3.8450 H       1  UNL1        0.0468
     38 H          -2.3980   -1.8098    4.4511 H       1  UNL1        0.0468
     39 H          -0.0216    0.3398    7.6254 H       1  UNL1        0.1506
     40 H          -2.1953   -0.1466    9.3616 H       1  UNL1        0.0512
     41 H          -1.1541   -1.5901    9.3485 H       1  UNL1        0.0512
     42 H           1.1185   -1.4906   10.2027 H       1  UNL1        0.0621
     43 H           2.6783   -0.3797   11.7505 H       1  UNL1        0.0623
     44 H           0.1749    3.0729   11.7952 H       1  UNL1        0.0623
     45 H          -1.3830    1.9634   10.2443 H       1  UNL1        0.0621
     46 H          -0.3565    1.3616    4.7467 H       1  UNL1        0.0468
     47 H           0.7471    0.4463    5.8195 H       1  UNL1        0.0468
@<TRIPOS>UNITY_ATOM_ATTR
2 1
charge 1
@<TRIPOS>BOND
     1     1     2    1
     2     1    29    1
     3     1    30    1
     4     1    31    1
     5     2     3    1
     6     2     4    1
     7     2     5    1
     8     4    32    1
     9     4    33    1
    10     4    34    1
    11     5     6    1
    12     5    35    1
    13     5    36    1
    14     6     7    1
    15     6    27    1
    16     6     8    1
    17     8     9    1
    18     8    27    1
    19     8    10    1
    20    10    11    1
    21    10    37    1
    22    10    38    1
    23    11    12   am
    24    11    26    1
    25    12    13    2
    26    12    14   am
    27    14    15    1
    28    14    39    1
    29    15    16    1
    30    15    40    1
    31    15    41    1
    32    16    25   ar
    33    16    17   ar
    34    17    18   ar
    35    17    42    1
    36    18    19   ar
    37    18    43    1
    38    19    20    1
    39    19    24   ar
    40    20    21    1
    41    20    22    1
    42    20    23    1
    43    24    25   ar
    44    24    44    1
    45    25    45    1
    46    26    27    1
    47    26    46    1
    48    26    47    1
    49    27    28    1
