@<TRIPOS>MOLECULE
ZINC000028049966
 44 46 0 0 0
SMALL
GASTEIGER

@<TRIPOS>ATOM
      1 O           0.0243   -0.2734    0.0458 O.2     1  UNL1       -0.2740
      2 C           0.1690    0.9255    0.1581 C.2     1  UNL1        0.2323
      3 N           1.4082    1.4517    0.2211 N.am    1  UNL1       -0.3069
      4 C           2.5804    0.5756    0.1540 C.3     1  UNL1        0.0698
      5 C           3.8344    1.4064    0.2453 C.ar    1  UNL1        0.1218
      6 C           4.4792    1.7354    1.3790 C.ar    1  UNL1       -0.0192
      7 C           5.5960    2.5166    1.0030 C.ar    1  UNL1       -0.0236
      8 C           5.5668    2.6183   -0.3380 C.ar    1  UNL1        0.0921
      9 O           4.5008    1.9391   -0.7919 O.2     1  UNL1       -0.4662
     10 C          -1.0367    1.8273    0.2209 C.3     1  UNL1        0.1078
     11 H          -1.0338    2.3851    1.1574 H       1  UNL1        0.0575
     12 C          -1.0234    2.8054   -0.9727 C.3     1  UNL1       -0.0260
     13 C          -1.9633    2.1164   -1.9970 C.3     1  UNL1       -0.0366
     14 C          -3.0236    1.4777   -1.0656 C.3     1  UNL1        0.0214
     15 N          -2.2657    1.0267    0.1197 N.3     1  UNL1       -0.1647
     16 S          -2.7239   -0.1808    1.1561 S.O2    1  UNL1        0.0629
     17 O          -2.1149    0.1110    2.4064 O.2     1  UNL1       -0.1528
     18 O          -4.1266   -0.3390    0.9929 O.2     1  UNL1       -0.1528
     19 C          -1.9845   -1.6723    0.5786 C.ar    1  UNL1        0.1242
     20 C          -0.9948   -2.2861    1.3225 C.ar    1  UNL1       -0.0223
     21 C          -0.4145   -3.4565    0.8694 C.ar    1  UNL1        0.0567
     22 C           0.6647   -4.1254    1.6811 C.3     1  UNL1        0.4175
     23 F           0.0829   -5.0340    2.5717 F       1  UNL1       -0.1659
     24 F           1.5381   -4.8053    0.8254 F       1  UNL1       -0.1659
     25 F           1.3751   -3.1578    2.3998 F       1  UNL1       -0.1659
     26 C          -0.8241   -4.0134   -0.3274 C.ar    1  UNL1       -0.0486
     27 C          -1.8141   -3.4003   -1.0724 C.ar    1  UNL1       -0.0410
     28 C          -2.3987   -2.2322   -0.6171 C.ar    1  UNL1        0.0673
     29 CL         -3.6420   -1.4616   -1.5521 Cl      1  UNL1       -0.0815
     30 H           1.5238    2.4106    0.3109 H       1  UNL1        0.1492
     31 H           2.5526   -0.1325    0.9821 H       1  UNL1        0.0542
     32 H           2.5733    0.0310   -0.7902 H       1  UNL1        0.0542
     33 H           4.1976    1.4567    2.3837 H       1  UNL1        0.0652
     34 H           6.3313    2.9491    1.6654 H       1  UNL1        0.0649
     35 H           6.2816    3.1523   -0.9466 H       1  UNL1        0.1029
     36 H          -1.4193    3.7775   -0.6791 H       1  UNL1        0.0286
     37 H          -0.0167    2.9044   -1.3788 H       1  UNL1        0.0286
     38 H          -2.4190    2.8489   -2.6633 H       1  UNL1        0.0279
     39 H          -1.4306    1.3529   -2.5641 H       1  UNL1        0.0279
     40 H          -3.7705    2.2175   -0.7777 H       1  UNL1        0.0444
     41 H          -3.4989    0.6291   -1.5577 H       1  UNL1        0.0444
     42 H          -0.6743   -1.8515    2.2578 H       1  UNL1        0.0643
     43 H          -0.3705   -4.9276   -0.6808 H       1  UNL1        0.0623
     44 H          -2.1341   -3.8355   -2.0076 H       1  UNL1        0.0633
@<TRIPOS>BOND
     1     1     2    2
     2     2     3   am
     3     2    10    1
     4     3     4    1
     5     3    30    1
     6     4     5    1
     7     4    31    1
     8     4    32    1
     9     5     9   ar
    10     5     6   ar
    11     6     7   ar
    12     6    33    1
    13     7     8   ar
    14     7    34    1
    15     8     9   ar
    16     8    35    1
    17    10    11    1
    18    10    15    1
    19    10    12    1
    20    12    13    1
    21    12    36    1
    22    12    37    1
    23    13    14    1
    24    13    38    1
    25    13    39    1
    26    14    15    1
    27    14    40    1
    28    14    41    1
    29    16    15    1
    30    16    17    2
    31    16    18    2
    32    16    19    1
    33    19    28   ar
    34    19    20   ar
    35    20    21   ar
    36    20    42    1
    37    21    22    1
    38    21    26   ar
    39    22    23    1
    40    22    24    1
    41    22    25    1
    42    26    27   ar
    43    26    43    1
    44    27    28   ar
    45    27    44    1
    46    28    29    1
