@<TRIPOS>MOLECULE
ZINC000028208282
 59 60 0 0 0
SMALL
GASTEIGER

@<TRIPOS>ATOM
      1 C          -0.0187    1.5258    0.0104 C.3     1  UNL1       -0.0507
      2 C           0.0021   -0.0041    0.0020 C.3     1  UNL1        0.0177
      3 N           0.6878   -0.4765   -1.2033 N.3     1  UNL1       -0.1771
      4 C           2.1478   -0.5966   -1.2159 C.3     1  UNL1        0.0177
      5 C           2.5532   -1.9514   -0.6319 C.3     1  UNL1       -0.0507
      6 S          -0.1875   -0.8749   -2.5515 S.O2    1  UNL1        0.0609
      7 O           0.6166   -1.7761   -3.3001 O.2     1  UNL1       -0.1528
      8 O          -1.4970   -1.1925   -2.1004 O.2     1  UNL1       -0.1528
      9 C          -0.3375    0.5853   -3.5262 C.ar    1  UNL1        0.1071
     10 C          -1.4061    1.4397   -3.3289 C.ar    1  UNL1       -0.0318
     11 C          -1.5264    2.5859   -4.0915 C.ar    1  UNL1       -0.0166
     12 C          -0.5738    2.8793   -5.0556 C.ar    1  UNL1        0.1395
     13 O          -0.6898    4.0063   -5.8064 O.3     1  UNL1       -0.4813
     14 C          -1.8185    4.8441   -5.5491 C.3     1  UNL1        0.1652
     15 C          -1.7795    6.0364   -6.4699 C.2     1  UNL1        0.2509
     16 O          -0.8743    6.1569   -7.2680 O.2     1  UNL1       -0.2721
     17 N          -2.7506    6.9688   -6.4066 N.am    1  UNL1       -0.3099
     18 C          -2.7127    8.1279   -7.3017 C.3     1  UNL1        0.0207
     19 H          -2.3034    7.8286   -8.2666 H       1  UNL1        0.0495
     20 C          -1.8299    9.2169   -6.6889 C.3     1  UNL1       -0.0466
     21 C          -4.1305    8.6695   -7.4951 C.3     1  UNL1       -0.0308
     22 C          -4.9808    7.6251   -8.2210 C.3     1  UNL1       -0.0260
     23 C          -6.3773    8.1586   -8.4115 C.ar    1  UNL1       -0.0473
     24 C          -7.3391    7.9391   -7.4432 C.ar    1  UNL1       -0.0586
     25 C          -8.6201    8.4285   -7.6179 C.ar    1  UNL1       -0.0615
     26 C          -8.9391    9.1378   -8.7607 C.ar    1  UNL1       -0.0617
     27 C          -7.9771    9.3581   -9.7286 C.ar    1  UNL1       -0.0615
     28 C          -6.6950    8.8724   -9.5519 C.ar    1  UNL1       -0.0586
     29 C           0.4989    2.0198   -5.2522 C.ar    1  UNL1        0.0844
     30 CL          1.6938    2.3831   -6.4580 Cl      1  UNL1       -0.0797
     31 C           0.6171    0.8775   -4.4832 C.ar    1  UNL1       -0.0134
     32 H           1.0039    1.9031    0.0027 H       1  UNL1        0.0243
     33 H          -0.5459    1.8868   -0.8726 H       1  UNL1        0.0243
     34 H          -0.5289    1.8773    0.9072 H       1  UNL1        0.0243
     35 H           0.5293   -0.3651    0.8851 H       1  UNL1        0.0441
     36 H          -1.0205   -0.3814    0.0098 H       1  UNL1        0.0441
     37 H           2.5098   -0.5199   -2.2412 H       1  UNL1        0.0441
     38 H           2.5833    0.2026   -0.6162 H       1  UNL1        0.0441
     39 H           2.1912   -2.0280    0.3934 H       1  UNL1        0.0243
     40 H           2.1177   -2.7506   -1.2316 H       1  UNL1        0.0243
     41 H           3.6395   -2.0407   -0.6413 H       1  UNL1        0.0243
     42 H          -2.1482    1.2110   -2.5782 H       1  UNL1        0.0638
     43 H          -2.3618    3.2526   -3.9368 H       1  UNL1        0.0655
     44 H          -2.7357    4.2812   -5.7222 H       1  UNL1        0.0795
     45 H          -1.7905    5.1836   -4.5137 H       1  UNL1        0.0795
     46 H          -3.4746    6.8724   -5.7683 H       1  UNL1        0.1491
     47 H          -2.2392    9.5162   -5.7240 H       1  UNL1        0.0247
     48 H          -0.8198    8.8310   -6.5511 H       1  UNL1        0.0247
     49 H          -1.8016   10.0793   -7.3549 H       1  UNL1        0.0247
     50 H          -4.5726    8.8858   -6.5225 H       1  UNL1        0.0286
     51 H          -4.0926    9.5832   -8.0882 H       1  UNL1        0.0286
     52 H          -4.5387    7.4089   -9.1936 H       1  UNL1        0.0314
     53 H          -5.0187    6.7114   -7.6279 H       1  UNL1        0.0314
     54 H          -7.0899    7.3849   -6.5504 H       1  UNL1        0.0620
     55 H          -9.3717    8.2563   -6.8617 H       1  UNL1        0.0618
     56 H          -9.9401    9.5195   -8.8975 H       1  UNL1        0.0618
     57 H          -8.2264    9.9120  -10.6216 H       1  UNL1        0.0618
     58 H          -5.9433    9.0446  -10.3081 H       1  UNL1        0.0620
     59 H           1.4512    0.2085   -4.6351 H       1  UNL1        0.0653
@<TRIPOS>BOND
     1     1     2    1
     2     1    32    1
     3     1    33    1
     4     1    34    1
     5     2     3    1
     6     2    35    1
     7     2    36    1
     8     3     4    1
     9     6     3    1
    10     4     5    1
    11     4    37    1
    12     4    38    1
    13     5    39    1
    14     5    40    1
    15     5    41    1
    16     6     7    2
    17     6     8    2
    18     6     9    1
    19     9    31   ar
    20     9    10   ar
    21    10    11   ar
    22    10    42    1
    23    11    12   ar
    24    11    43    1
    25    12    13    1
    26    12    29   ar
    27    13    14    1
    28    14    15    1
    29    14    44    1
    30    14    45    1
    31    15    16    2
    32    15    17   am
    33    17    18    1
    34    17    46    1
    35    18    19    1
    36    18    20    1
    37    18    21    1
    38    20    47    1
    39    20    48    1
    40    20    49    1
    41    21    22    1
    42    21    50    1
    43    21    51    1
    44    22    23    1
    45    22    52    1
    46    22    53    1
    47    23    28   ar
    48    23    24   ar
    49    24    25   ar
    50    24    54    1
    51    25    26   ar
    52    25    55    1
    53    26    27   ar
    54    26    56    1
    55    27    28   ar
    56    27    57    1
    57    28    58    1
    58    29    30    1
    59    29    31   ar
    60    31    59    1
