@<TRIPOS>MOLECULE
ZINC000028208433
 55 56 0 0 0
SMALL
GASTEIGER

@<TRIPOS>ATOM
      1 C          -1.3477   -4.7024    2.4738 C.3     1  UNL1       -0.0466
      2 C           0.0833   -4.1735    2.5887 C.3     1  UNL1        0.0206
      3 H           0.6696   -4.5243    1.7394 H       1  UNL1        0.0495
      4 C           0.7123   -4.6822    3.8874 C.3     1  UNL1       -0.0308
      5 C           2.1812   -4.2578    3.9431 C.3     1  UNL1       -0.0260
      6 C           2.8007   -4.7588    5.2223 C.ar    1  UNL1       -0.0473
      7 C           2.7754   -3.9705    6.3575 C.ar    1  UNL1       -0.0586
      8 C           3.3394   -4.4321    7.5322 C.ar    1  UNL1       -0.0615
      9 C           3.9379   -5.6776    7.5688 C.ar    1  UNL1       -0.0617
     10 C           3.9677   -6.4637    6.4321 C.ar    1  UNL1       -0.0615
     11 C           3.3991   -6.0043    5.2589 C.ar    1  UNL1       -0.0586
     12 N           0.0635   -2.7087    2.5968 N.am    1  UNL1       -0.3127
     13 C           0.0432   -2.0286    1.4333 C.2     1  UNL1        0.2135
     14 O           0.0414   -2.6293    0.3797 O.2     1  UNL1       -0.2758
     15 C           0.0228   -0.5218    1.4416 C.3     1  UNL1        0.0279
     16 C           0.0021   -0.0041    0.0020 C.3     1  UNL1       -0.0194
     17 C          -0.0184    1.5028    0.0103 C.ar    1  UNL1       -0.0468
     18 C          -1.2248    2.1776    0.0197 C.ar    1  UNL1       -0.0567
     19 C          -1.2435    3.5598    0.0322 C.ar    1  UNL1       -0.0351
     20 C          -0.0559    4.2672    0.0251 C.ar    1  UNL1        0.1055
     21 S          -0.0797    6.0290    0.0349 S.O2    1  UNL1        0.0604
     22 O          -1.3295    6.4102    0.5934 O.2     1  UNL1       -0.1529
     23 O           1.1696    6.4443    0.5696 O.2     1  UNL1       -0.1529
     24 N          -0.1015    6.5277   -1.5441 N.3     1  UNL1       -0.1827
     25 C          -1.3797    6.7310   -2.2305 C.3     1  UNL1        0.0086
     26 C           1.1574    6.7655   -2.2546 C.3     1  UNL1        0.0086
     27 C           1.1505    3.5924    0.0100 C.ar    1  UNL1       -0.0351
     28 C           1.1693    2.2102    0.0028 C.ar    1  UNL1       -0.0567
     29 H          -1.9340   -4.3516    3.3231 H       1  UNL1        0.0247
     30 H          -1.7958   -4.3400    1.5486 H       1  UNL1        0.0247
     31 H          -1.3330   -5.7922    2.4678 H       1  UNL1        0.0247
     32 H           0.1794   -4.2594    4.7391 H       1  UNL1        0.0286
     33 H           0.6468   -5.7697    3.9212 H       1  UNL1        0.0286
     34 H           2.7141   -4.6805    3.0914 H       1  UNL1        0.0314
     35 H           2.2467   -3.1703    3.9093 H       1  UNL1        0.0314
     36 H           2.3117   -2.9955    6.3278 H       1  UNL1        0.0620
     37 H           3.3164   -3.8177    8.4201 H       1  UNL1        0.0618
     38 H           4.3824   -6.0364    8.4853 H       1  UNL1        0.0618
     39 H           4.4356   -7.4367    6.4606 H       1  UNL1        0.0618
     40 H           3.4228   -6.6184    4.3707 H       1  UNL1        0.0620
     41 H           0.0649   -2.2282    3.4394 H       1  UNL1        0.1490
     42 H           0.9126   -0.1491    1.9490 H       1  UNL1        0.0361
     43 H          -0.8671   -0.1733    1.9659 H       1  UNL1        0.0361
     44 H          -0.8878   -0.3767   -0.5053 H       1  UNL1        0.0318
     45 H           0.8920   -0.3525   -0.5222 H       1  UNL1        0.0318
     46 H          -2.1527    1.6249    0.0211 H       1  UNL1        0.0621
     47 H          -2.1860    4.0870    0.0437 H       1  UNL1        0.0637
     48 H          -2.1988    6.5064   -1.5472 H       1  UNL1        0.0408
     49 H          -1.4547    7.7675   -2.5593 H       1  UNL1        0.0408
     50 H          -1.4367    6.0703   -3.0956 H       1  UNL1        0.0408
     51 H           1.4800    5.8447   -2.7404 H       1  UNL1        0.0408
     52 H           1.0093    7.5405   -3.0066 H       1  UNL1        0.0408
     53 H           1.9195    7.0884   -1.5453 H       1  UNL1        0.0408
     54 H           2.0784    4.1450    0.0041 H       1  UNL1        0.0637
     55 H           2.1118    1.6830   -0.0091 H       1  UNL1        0.0621
@<TRIPOS>BOND
     1     1     2    1
     2     1    29    1
     3     1    30    1
     4     1    31    1
     5     2     3    1
     6     2     4    1
     7     2    12    1
     8     4     5    1
     9     4    32    1
    10     4    33    1
    11     5     6    1
    12     5    34    1
    13     5    35    1
    14     6    11   ar
    15     6     7   ar
    16     7     8   ar
    17     7    36    1
    18     8     9   ar
    19     8    37    1
    20     9    10   ar
    21     9    38    1
    22    10    11   ar
    23    10    39    1
    24    11    40    1
    25    12    13   am
    26    12    41    1
    27    13    14    2
    28    13    15    1
    29    15    16    1
    30    15    42    1
    31    15    43    1
    32    16    17    1
    33    16    44    1
    34    16    45    1
    35    17    28   ar
    36    17    18   ar
    37    18    19   ar
    38    18    46    1
    39    19    20   ar
    40    19    47    1
    41    20    21    1
    42    20    27   ar
    43    21    22    2
    44    21    23    2
    45    21    24    1
    46    24    25    1
    47    24    26    1
    48    25    48    1
    49    25    49    1
    50    25    50    1
    51    26    51    1
    52    26    52    1
    53    26    53    1
    54    27    28   ar
    55    27    54    1
    56    28    55    1
