@<TRIPOS>MOLECULE
ZINC000012797173
 55 57 0 0 0
SMALL
GASTEIGER

@<TRIPOS>ATOM
      1 C           1.0212   -0.7673   -0.8464 C.3     1  UNL1       -0.0409
      2 C           0.0021   -0.0041    0.0020 C.3     1  UNL1        0.0844
      3 H          -0.0793    1.0201   -0.3620 H       1  UNL1        0.0556
      4 C          -1.3409   -0.6805   -0.0967 C.2     1  UNL1        0.2302
      5 O          -1.6482   -1.5384    0.7036 O.2     1  UNL1       -0.2741
      6 N          -2.2007   -0.3322   -1.0745 N.am    1  UNL1       -0.3112
      7 C          -3.5063   -0.9898   -1.1705 C.3     1  UNL1        0.0232
      8 C          -4.5379   -0.2462   -0.2972 C.3     1  UNL1       -0.0345
      9 C          -5.2505    0.7119   -1.2838 C.3     1  UNL1       -0.0513
     10 C          -5.3542   -0.1402   -2.5731 C.3     1  UNL1       -0.0513
     11 C          -4.0252   -0.9224   -2.6175 C.3     1  UNL1       -0.0345
     12 N           0.4425    0.0078    1.4034 N.3     1  UNL1       -0.2892
     13 C           0.8362   -1.3374    1.8429 C.3     1  UNL1        0.0141
     14 C           1.4566   -1.2531    3.2416 C.3     1  UNL1        0.0333
     15 N           0.5119   -0.5600    4.1306 N.3     1  UNL1       -0.1741
     16 S           0.0750   -1.2186    5.5859 S.O2    1  UNL1        0.0609
     17 O          -1.1841   -0.6516    5.9210 O.2     1  UNL1       -0.1528
     18 O           0.2921   -2.6185    5.4741 O.2     1  UNL1       -0.1528
     19 C           1.2209   -0.6319    6.7889 C.ar    1  UNL1        0.1055
     20 C           2.3802   -1.3408    7.0428 C.ar    1  UNL1       -0.0348
     21 C           3.2792   -0.8806    7.9866 C.ar    1  UNL1       -0.0483
     22 C           3.0191    0.2889    8.6763 C.ar    1  UNL1        0.0549
     23 C           3.9989    0.7904    9.7056 C.3     1  UNL1        0.4174
     24 F           4.9293    1.6353    9.0911 F       1  UNL1       -0.1659
     25 F           3.3116    1.4970   10.6983 F       1  UNL1       -0.1659
     26 F           4.6655   -0.2957   10.2831 F       1  UNL1       -0.1659
     27 C           1.8605    0.9985    8.4215 C.ar    1  UNL1       -0.0483
     28 C           0.9634    0.5403    7.4749 C.ar    1  UNL1       -0.0348
     29 C          -0.0340    0.7337    3.6932 C.3     1  UNL1        0.0333
     30 C          -0.5957    0.5711    2.2767 C.3     1  UNL1        0.0141
     31 H           1.1026   -1.7915   -0.4824 H       1  UNL1        0.0249
     32 H           0.6944   -0.7761   -1.8862 H       1  UNL1        0.0249
     33 H           1.9926   -0.2780   -0.7750 H       1  UNL1        0.0249
     34 H          -1.9550    0.3540   -1.7146 H       1  UNL1        0.1490
     35 H          -3.4251   -2.0287   -0.8509 H       1  UNL1        0.0498
     36 H          -5.2507   -0.9495    0.1334 H       1  UNL1        0.0283
     37 H          -4.0362    0.3190    0.4882 H       1  UNL1        0.0283
     38 H          -6.2414    0.9781   -0.9160 H       1  UNL1        0.0266
     39 H          -4.6493    1.6043   -1.4579 H       1  UNL1        0.0266
     40 H          -6.1987   -0.8264   -2.5099 H       1  UNL1        0.0266
     41 H          -5.4481    0.5023   -3.4485 H       1  UNL1        0.0266
     42 H          -3.3057   -0.4004   -3.2483 H       1  UNL1        0.0283
     43 H          -4.1968   -1.9286   -2.9999 H       1  UNL1        0.0283
     44 H          -0.0423   -1.9820    1.8729 H       1  UNL1        0.0440
     45 H           1.5660   -1.7489    1.1455 H       1  UNL1        0.0440
     46 H           1.6454   -2.2578    3.6196 H       1  UNL1        0.0456
     47 H           2.3917   -0.6949    3.1943 H       1  UNL1        0.0456
     48 H           2.5833   -2.2545    6.5039 H       1  UNL1        0.0637
     49 H           4.1845   -1.4348    8.1854 H       1  UNL1        0.0624
     50 H           1.6575    1.9124    8.9601 H       1  UNL1        0.0624
     51 H           0.0582    1.0947    7.2758 H       1  UNL1        0.0637
     52 H          -0.8308    1.0426    4.3698 H       1  UNL1        0.0456
     53 H           0.7577    1.4828    3.6893 H       1  UNL1        0.0456
     54 H          -0.9045    1.5439    1.8940 H       1  UNL1        0.0440
     55 H          -1.4543   -0.0999    2.3007 H       1  UNL1        0.0440
@<TRIPOS>BOND
     1     1     2    1
     2     1    31    1
     3     1    32    1
     4     1    33    1
     5     2     3    1
     6     2     4    1
     7     2    12    1
     8     4     5    2
     9     4     6   am
    10     6     7    1
    11     6    34    1
    12     7    11    1
    13     7     8    1
    14     7    35    1
    15     8     9    1
    16     8    36    1
    17     8    37    1
    18     9    10    1
    19     9    38    1
    20     9    39    1
    21    10    11    1
    22    10    40    1
    23    10    41    1
    24    11    42    1
    25    11    43    1
    26    12    30    1
    27    12    13    1
    28    13    14    1
    29    13    44    1
    30    13    45    1
    31    14    15    1
    32    14    46    1
    33    14    47    1
    34    16    15    1
    35    15    29    1
    36    16    17    2
    37    16    18    2
    38    16    19    1
    39    19    28   ar
    40    19    20   ar
    41    20    21   ar
    42    20    48    1
    43    21    22   ar
    44    21    49    1
    45    22    23    1
    46    22    27   ar
    47    23    24    1
    48    23    25    1
    49    23    26    1
    50    27    28   ar
    51    27    50    1
    52    28    51    1
    53    29    30    1
    54    29    52    1
    55    29    53    1
    56    30    54    1
    57    30    55    1
