@<TRIPOS>MOLECULE
ZINC000409009259
 64 66 0 0 0
SMALL
GASTEIGER

@<TRIPOS>ATOM
      1 C          -9.0578   -6.1146    4.1572 C.3     1  UNL1        0.0790
      2 O          -9.2411   -4.7883    3.6578 O.3     1  UNL1       -0.4915
      3 C          -8.2892   -4.3098    2.8125 C.ar    1  UNL1        0.1616
      4 C          -7.2063   -5.1015    2.4671 C.ar    1  UNL1       -0.0145
      5 C          -6.2395   -4.6135    1.6071 C.ar    1  UNL1       -0.0317
      6 C          -6.3506   -3.3363    1.0908 C.ar    1  UNL1        0.1092
      7 S          -5.1151   -2.7203   -0.0041 S.O2    1  UNL1        0.0617
      8 O          -5.1615   -1.3035    0.0950 O.2     1  UNL1       -0.1528
      9 O          -3.9405   -3.4790    0.2487 O.2     1  UNL1       -0.1528
     10 N          -5.5928   -3.0972   -1.5442 N.3     1  UNL1       -0.1635
     11 C          -5.3013   -4.4218   -2.0981 C.3     1  UNL1        0.0971
     12 C          -6.4904   -5.3247   -1.8936 C.2     1  UNL1        0.2290
     13 O          -7.4837   -4.9032   -1.3397 O.2     1  UNL1       -0.2743
     14 N          -6.4502   -6.6005   -2.3262 N.am    1  UNL1       -0.3114
     15 C          -7.6062   -7.4782   -2.1274 C.3     1  UNL1        0.0232
     16 C          -8.5775   -7.2997   -3.2627 C.3     1  UNL1       -0.0345
     17 C         -10.0432   -7.4565   -2.8147 C.3     1  UNL1       -0.0514
     18 C         -10.2454   -8.6243   -1.8303 C.3     1  UNL1       -0.0530
     19 C          -9.4631   -9.8489   -2.2212 C.3     1  UNL1       -0.0530
     20 C          -8.1144   -9.8281   -1.4730 C.3     1  UNL1       -0.0514
     21 C          -7.1424   -8.9490   -2.1060 C.3     1  UNL1       -0.0345
     22 C          -6.3071   -2.1062   -2.3528 C.3     1  UNL1        0.0460
     23 C          -5.3272   -1.3791   -3.2373 C.ar    1  UNL1       -0.0317
     24 C          -4.7917   -0.1718   -2.8293 C.ar    1  UNL1       -0.0573
     25 C          -3.8929    0.4951   -3.6406 C.ar    1  UNL1       -0.0615
     26 C          -3.5292   -0.0456   -4.8598 C.ar    1  UNL1       -0.0617
     27 C          -4.0640   -1.2534   -5.2674 C.ar    1  UNL1       -0.0615
     28 C          -4.9595   -1.9223   -4.4541 C.ar    1  UNL1       -0.0573
     29 C          -7.4294   -2.5410    1.4312 C.ar    1  UNL1        0.0101
     30 C          -8.4041   -3.0256    2.2880 C.ar    1  UNL1        0.1633
     31 O          -9.4657   -2.2447    2.6237 O.3     1  UNL1       -0.4914
     32 C          -9.5124   -0.9342    2.0559 C.3     1  UNL1        0.0790
     33 H          -9.8856   -6.3716    4.8180 H       1  UNL1        0.0660
     34 H          -9.0273   -6.8159    3.3233 H       1  UNL1        0.0660
     35 H          -8.1206   -6.1679    4.7112 H       1  UNL1        0.0660
     36 H          -7.1167   -6.0996    2.8697 H       1  UNL1        0.0656
     37 H          -5.3956   -5.2318    1.3386 H       1  UNL1        0.0638
     38 H          -5.0924   -4.3319   -3.1641 H       1  UNL1        0.0539
     39 H          -4.4332   -4.8442   -1.5921 H       1  UNL1        0.0539
     40 H          -5.6558   -6.9376   -2.7691 H       1  UNL1        0.1490
     41 H          -8.0932   -7.2340   -1.1833 H       1  UNL1        0.0498
     42 H          -8.4434   -6.3053   -3.6885 H       1  UNL1        0.0283
     43 H          -8.3622   -8.0422   -4.0310 H       1  UNL1        0.0283
     44 H         -10.3649   -6.5324   -2.3345 H       1  UNL1        0.0266
     45 H         -10.6634   -7.6272   -3.6946 H       1  UNL1        0.0266
     46 H          -9.9298   -8.3066   -0.8365 H       1  UNL1        0.0265
     47 H         -11.3049   -8.8784   -1.7973 H       1  UNL1        0.0265
     48 H         -10.0212  -10.7435   -1.9451 H       1  UNL1        0.0265
     49 H          -9.2854   -9.8420   -3.2966 H       1  UNL1        0.0265
     50 H          -8.2831   -9.4898   -0.4506 H       1  UNL1        0.0266
     51 H          -7.7102  -10.8400   -1.4459 H       1  UNL1        0.0266
     52 H          -6.9794   -9.2827   -3.1308 H       1  UNL1        0.0283
     53 H          -6.2004   -9.0142   -1.5615 H       1  UNL1        0.0283
     54 H          -7.0506   -2.6093   -2.9710 H       1  UNL1        0.0493
     55 H          -6.8037   -1.3915   -1.6965 H       1  UNL1        0.0493
     56 H          -5.0759    0.2506   -1.8768 H       1  UNL1        0.0621
     57 H          -3.4751    1.4387   -3.3222 H       1  UNL1        0.0618
     58 H          -2.8275    0.4758   -5.4940 H       1  UNL1        0.0618
     59 H          -3.7801   -1.6756   -6.2200 H       1  UNL1        0.0618
     60 H          -5.3773   -2.8660   -4.7726 H       1  UNL1        0.0621
     61 H          -7.5138   -1.5433    1.0263 H       1  UNL1        0.0675
     62 H          -8.6286   -0.3742    2.3614 H       1  UNL1        0.0660
     63 H          -9.5367   -1.0100    0.9688 H       1  UNL1        0.0660
     64 H         -10.4075   -0.4190    2.4043 H       1  UNL1        0.0660
@<TRIPOS>BOND
     1     1     2    1
     2     1    33    1
     3     1    34    1
     4     1    35    1
     5     2     3    1
     6     3    30   ar
     7     3     4   ar
     8     4     5   ar
     9     4    36    1
    10     5     6   ar
    11     5    37    1
    12     6     7    1
    13     6    29   ar
    14     7     8    2
    15     7     9    2
    16     7    10    1
    17    10    11    1
    18    10    22    1
    19    11    12    1
    20    11    38    1
    21    11    39    1
    22    12    13    2
    23    12    14   am
    24    14    15    1
    25    14    40    1
    26    15    21    1
    27    15    16    1
    28    15    41    1
    29    16    17    1
    30    16    42    1
    31    16    43    1
    32    17    18    1
    33    17    44    1
    34    17    45    1
    35    18    19    1
    36    18    46    1
    37    18    47    1
    38    19    20    1
    39    19    48    1
    40    19    49    1
    41    20    21    1
    42    20    50    1
    43    20    51    1
    44    21    52    1
    45    21    53    1
    46    22    23    1
    47    22    54    1
    48    22    55    1
    49    23    28   ar
    50    23    24   ar
    51    24    25   ar
    52    24    56    1
    53    25    26   ar
    54    25    57    1
    55    26    27   ar
    56    26    58    1
    57    27    28   ar
    58    27    59    1
    59    28    60    1
    60    29    30   ar
    61    29    61    1
    62    30    31    1
    63    31    32    1
    64    32    62    1
    65    32    63    1
    66    32    64    1
