@<TRIPOS>MOLECULE
ZINC000408618781
 56 57 0 0 0
SMALL
GASTEIGER

@<TRIPOS>ATOM
      1 C          -0.0173    1.4248    0.0099 C.3     1  UNL1        0.0365
      2 O           0.0021   -0.0041    0.0020 O.3     1  UNL1       -0.3812
      3 C          -1.2953   -0.6030    0.0112 C.3     1  UNL1        0.0654
      4 C          -1.1538   -2.1264    0.0017 C.3     1  UNL1        0.0437
      5 H          -2.1404   -2.5824   -0.0809 H       1  UNL1        0.0518
      6 C          -0.2942   -2.5513   -1.1905 C.3     1  UNL1       -0.0445
      7 N          -0.5155   -2.5654    1.2451 N.am    1  UNL1       -0.3094
      8 C          -0.7243   -3.8149    1.7051 C.2     1  UNL1        0.2291
      9 O          -1.4405   -4.5759    1.0897 O.2     1  UNL1       -0.2743
     10 C          -0.0677   -4.2664    2.9842 C.3     1  UNL1        0.0971
     11 N          -0.4493   -5.6524    3.2662 N.3     1  UNL1       -0.1635
     12 C           0.2977   -6.7561    2.6579 C.3     1  UNL1        0.0460
     13 C           1.5065   -7.0696    3.5014 C.ar    1  UNL1       -0.0316
     14 C           2.7046   -6.4239    3.2592 C.ar    1  UNL1       -0.0570
     15 C           3.8135   -6.7113    4.0329 C.ar    1  UNL1       -0.0585
     16 C           3.7242   -7.6442    5.0491 C.ar    1  UNL1       -0.0504
     17 C           4.9332   -7.9580    5.8923 C.3     1  UNL1       -0.0397
     18 C           2.5258   -8.2889    5.2922 C.ar    1  UNL1       -0.0585
     19 C           1.4159   -7.9986    4.5210 C.ar    1  UNL1       -0.0570
     20 S          -1.7252   -5.9715    4.2725 S.O2    1  UNL1        0.0616
     21 O          -1.5163   -7.2813    4.7824 O.2     1  UNL1       -0.1528
     22 O          -1.8762   -4.8289    5.1037 O.2     1  UNL1       -0.1528
     23 C          -3.1723   -6.0525    3.2705 C.ar    1  UNL1        0.1055
     24 C          -3.9091   -4.9086    3.0267 C.ar    1  UNL1       -0.0351
     25 C          -5.0444   -4.9722    2.2406 C.ar    1  UNL1       -0.0570
     26 C          -5.4426   -6.1796    1.6979 C.ar    1  UNL1       -0.0503
     27 C          -6.6805   -6.2490    0.8412 C.3     1  UNL1       -0.0397
     28 C          -4.7050   -7.3232    1.9405 C.ar    1  UNL1       -0.0570
     29 C          -3.5675   -7.2590    2.7235 C.ar    1  UNL1       -0.0351
     30 H           1.0053    1.8021    0.0021 H       1  UNL1        0.0523
     31 H          -0.5445    1.7859   -0.8732 H       1  UNL1        0.0523
     32 H          -0.5275    1.7763    0.9067 H       1  UNL1        0.0523
     33 H          -1.8320   -0.2936    0.9080 H       1  UNL1        0.0578
     34 H          -1.8490   -0.2840   -0.8718 H       1  UNL1        0.0578
     35 H          -0.1934   -3.6366   -1.1973 H       1  UNL1        0.0248
     36 H          -0.7691   -2.2247   -2.1157 H       1  UNL1        0.0248
     37 H           0.6924   -2.0953   -1.1079 H       1  UNL1        0.0248
     38 H           0.0573   -1.9567    1.7373 H       1  UNL1        0.1491
     39 H           1.0153   -4.2020    2.8790 H       1  UNL1        0.0539
     40 H          -0.3918   -3.6262    3.8046 H       1  UNL1        0.0539
     41 H          -0.3412   -7.6372    2.5970 H       1  UNL1        0.0493
     42 H           0.6180   -6.4696    1.6562 H       1  UNL1        0.0493
     43 H           2.7743   -5.6951    2.4652 H       1  UNL1        0.0621
     44 H           4.7497   -6.2074    3.8432 H       1  UNL1        0.0620
     45 H           4.9583   -7.2909    6.7539 H       1  UNL1        0.0278
     46 H           4.8793   -8.9915    6.2343 H       1  UNL1        0.0278
     47 H           5.8365   -7.8185    5.2983 H       1  UNL1        0.0278
     48 H           2.4560   -9.0174    6.0864 H       1  UNL1        0.0620
     49 H           0.4796   -8.5023    4.7109 H       1  UNL1        0.0621
     50 H          -3.5980   -3.9653    3.4507 H       1  UNL1        0.0637
     51 H          -5.6205   -4.0786    2.0507 H       1  UNL1        0.0621
     52 H          -6.4112   -6.0773   -0.2009 H       1  UNL1        0.0278
     53 H          -7.1367   -7.2338    0.9411 H       1  UNL1        0.0278
     54 H          -7.3889   -5.4860    1.1639 H       1  UNL1        0.0278
     55 H          -5.0158   -8.2665    1.5162 H       1  UNL1        0.0621
     56 H          -2.9913   -8.1525    2.9131 H       1  UNL1        0.0637
@<TRIPOS>BOND
     1     1     2    1
     2     1    30    1
     3     1    31    1
     4     1    32    1
     5     2     3    1
     6     3     4    1
     7     3    33    1
     8     3    34    1
     9     4     5    1
    10     4     6    1
    11     4     7    1
    12     6    35    1
    13     6    36    1
    14     6    37    1
    15     7     8   am
    16     7    38    1
    17     8     9    2
    18     8    10    1
    19    10    11    1
    20    10    39    1
    21    10    40    1
    22    11    12    1
    23    20    11    1
    24    12    13    1
    25    12    41    1
    26    12    42    1
    27    13    19   ar
    28    13    14   ar
    29    14    15   ar
    30    14    43    1
    31    15    16   ar
    32    15    44    1
    33    16    17    1
    34    16    18   ar
    35    17    45    1
    36    17    46    1
    37    17    47    1
    38    18    19   ar
    39    18    48    1
    40    19    49    1
    41    20    21    2
    42    20    22    2
    43    20    23    1
    44    23    29   ar
    45    23    24   ar
    46    24    25   ar
    47    24    50    1
    48    25    26   ar
    49    25    51    1
    50    26    27    1
    51    26    28   ar
    52    27    52    1
    53    27    53    1
    54    27    54    1
    55    28    29   ar
    56    28    55    1
    57    29    56    1
