@<TRIPOS>MOLECULE
ZINC000085597987
 51 53 0 0 0
SMALL
GASTEIGER

@<TRIPOS>ATOM
      1 C           0.0146    1.5034    0.0107 C.3     1  UNL1       -0.0225
      2 C           0.0239   -0.0035    0.0023 C.ar    1  UNL1        0.0403
      3 C           0.0232   -0.7852   -1.1040 C.ar    1  UNL1        0.1292
      4 S           0.0121   -0.2206   -2.7731 S.O2    1  UNL1        0.0628
      5 O          -0.5294   -1.2792   -3.5512 O.2     1  UNL1       -0.1528
      6 O          -0.5401    1.0885   -2.7502 O.2     1  UNL1       -0.1528
      7 N           1.5908   -0.0539   -3.2446 N.3     1  UNL1       -0.1765
      8 C           2.3009    1.2171   -3.0471 C.3     1  UNL1        0.0205
      9 C           3.5989    0.9429   -2.2811 C.3     1  UNL1       -0.0385
     10 C           4.4099   -0.1212   -3.0240 C.3     1  UNL1       -0.0506
     11 C           3.6060   -1.4216   -3.0932 C.3     1  UNL1       -0.0385
     12 C           2.3099   -1.1762   -3.8629 C.3     1  UNL1        0.0205
     13 C           0.0335   -2.1197   -0.6864 C.ar    1  UNL1        0.0059
     14 C           0.0370   -3.3363   -1.5757 C.3     1  UNL1       -0.0357
     15 C           0.0404   -2.1126    0.6925 C.ar    1  UNL1        0.1072
     16 C           0.0521   -3.2910    1.5653 C.2     1  UNL1        0.2648
     17 O           0.0566   -4.4073    1.0805 O.2     1  UNL1       -0.2682
     18 N           0.0579   -3.1378    2.9043 N.am    1  UNL1       -0.2803
     19 C          -0.0286   -4.2581    3.7366 C.ar    1  UNL1        0.0337
     20 C          -0.7256   -4.1822    4.9356 C.ar    1  UNL1       -0.0399
     21 C          -0.8095   -5.2907    5.7551 C.ar    1  UNL1       -0.0484
     22 C          -0.2003   -6.4751    5.3833 C.ar    1  UNL1        0.0549
     23 C          -0.2935   -7.6825    6.2802 C.3     1  UNL1        0.4174
     24 F          -1.4261   -8.4299    5.9399 F       1  UNL1       -0.1659
     25 F           0.8509   -8.4713    6.1209 F       1  UNL1       -0.1659
     26 F          -0.3919   -7.2672    7.6125 F       1  UNL1       -0.1659
     27 C           0.4940   -6.5542    4.1899 C.ar    1  UNL1       -0.0484
     28 C           0.5773   -5.4509    3.3634 C.ar    1  UNL1       -0.0399
     29 N           0.0402   -0.7979    1.1004 N.ar    1  UNL1       -0.3528
     30 H           1.0400    1.8731    0.0025 H       1  UNL1        0.0292
     31 H          -0.5103    1.8685   -0.8721 H       1  UNL1        0.0292
     32 H          -0.4925    1.8586    0.9077 H       1  UNL1        0.0292
     33 H           2.5345    1.6594   -4.0155 H       1  UNL1        0.0444
     34 H           1.6749    1.8999   -2.4727 H       1  UNL1        0.0444
     35 H           4.1814    1.8616   -2.2117 H       1  UNL1        0.0278
     36 H           3.3615    0.5856   -1.2791 H       1  UNL1        0.0278
     37 H           4.6258    0.2264   -4.0343 H       1  UNL1        0.0266
     38 H           5.3454   -0.3004   -2.4942 H       1  UNL1        0.0266
     39 H           4.1935   -2.1859   -3.6019 H       1  UNL1        0.0278
     40 H           3.3685   -1.7567   -2.0835 H       1  UNL1        0.0278
     41 H           1.6898   -2.0720   -3.8295 H       1  UNL1        0.0444
     42 H           2.5414   -0.9279   -4.8987 H       1  UNL1        0.0444
     43 H           1.0654   -3.6231   -1.7950 H       1  UNL1        0.0279
     44 H          -0.4693   -4.1580   -1.0693 H       1  UNL1        0.0279
     45 H          -0.4827   -3.1077   -2.5062 H       1  UNL1        0.0279
     46 H           0.1221   -2.2504    3.2906 H       1  UNL1        0.1552
     47 H          -1.2010   -3.2573    5.2269 H       1  UNL1        0.0636
     48 H          -1.3513   -5.2324    6.6876 H       1  UNL1        0.0624
     49 H           0.9684   -7.4807    3.9022 H       1  UNL1        0.0624
     50 H           1.1197   -5.5133    2.4315 H       1  UNL1        0.0636
     51 H           0.0448   -0.4911    2.0206 H       1  UNL1        0.1658
@<TRIPOS>BOND
     1     1     2    1
     2     1    30    1
     3     1    31    1
     4     1    32    1
     5     2    29   ar
     6     2     3   ar
     7     3     4    1
     8     3    13   ar
     9     4     5    2
    10     4     6    2
    11     4     7    1
    12     7    12    1
    13     7     8    1
    14     8     9    1
    15     8    33    1
    16     8    34    1
    17     9    10    1
    18     9    35    1
    19     9    36    1
    20    10    11    1
    21    10    37    1
    22    10    38    1
    23    11    12    1
    24    11    39    1
    25    11    40    1
    26    12    41    1
    27    12    42    1
    28    13    14    1
    29    13    15   ar
    30    14    43    1
    31    14    44    1
    32    14    45    1
    33    15    16    1
    34    15    29   ar
    35    16    17    2
    36    16    18   am
    37    18    19    1
    38    18    46    1
    39    19    28   ar
    40    19    20   ar
    41    20    21   ar
    42    20    47    1
    43    21    22   ar
    44    21    48    1
    45    22    23    1
    46    22    27   ar
    47    23    24    1
    48    23    25    1
    49    23    26    1
    50    27    28   ar
    51    27    49    1
    52    28    50    1
    53    29    51    1
