@<TRIPOS>MOLECULE
ZINC000019477664
 26 26 0 0 0
SMALL
GASTEIGER

@<TRIPOS>ATOM
      1 C          -0.0187    1.5258    0.0104 C.3     1  UNL1       -0.0037
      2 C           0.0021   -0.0041    0.0020 C.3     1  UNL1        0.1117
      3 N           0.7126   -0.4907    1.1921 N.4     1  UNL1        0.2343
      4 H           0.2403   -0.1653    2.0223 H       1  UNL1        0.2009
      5 H           0.7262   -1.4996    1.1866 H       1  UNL1        0.2009
      6 H           1.6592   -0.1415    1.1850 H       1  UNL1        0.2009
      7 C          -1.4117   -0.5257    0.0127 C.2     1  UNL1        0.4100
      8 O          -2.1751   -0.2365   -0.8929 O.co2   1  UNL1       -0.2392
      9 O          -1.7922   -1.2369    0.9270 O.co2   1  UNL1       -0.2392
     10 C           0.7074   -0.4901   -1.2379 C.ar    1  UNL1        0.0139
     11 C           0.6712    0.2656   -2.3948 C.ar    1  UNL1       -0.0519
     12 C           1.3182   -0.1801   -3.5321 C.ar    1  UNL1       -0.0496
     13 C           2.0019   -1.3814   -3.5124 C.ar    1  UNL1        0.0548
     14 C           2.7068   -1.8677   -4.7524 C.3     1  UNL1        0.4174
     15 F           4.0211   -1.3882   -4.7600 F       1  UNL1       -0.1659
     16 F           2.7208   -3.2666   -4.7627 F       1  UNL1       -0.1659
     17 F           2.0331   -1.3997   -5.8857 F       1  UNL1       -0.1659
     18 C           2.0393   -2.1365   -2.3551 C.ar    1  UNL1       -0.0496
     19 C           1.3955   -1.6888   -1.2166 C.ar    1  UNL1       -0.0519
     20 H           1.0039    1.9031    0.0027 H       1  UNL1        0.0296
     21 H          -0.5459    1.8868   -0.8726 H       1  UNL1        0.0296
     22 H          -0.5289    1.8773    0.9072 H       1  UNL1        0.0296
     23 H           0.1371    1.2042   -2.4102 H       1  UNL1        0.0623
     24 H           1.2893    0.4099   -4.4362 H       1  UNL1        0.0623
     25 H           2.5737   -3.0749   -2.3395 H       1  UNL1        0.0623
     26 H           1.4247   -2.2787   -0.3124 H       1  UNL1        0.0623
@<TRIPOS>UNITY_ATOM_ATTR
3 1
charge 1
@<TRIPOS>BOND
     1     1    20    1
     2     1    21    1
     3     1    22    1
     4     2     1    1
     5     2     3    1
     6     2     7    1
     7     2    10    1
     8     3     4    1
     9     3     5    1
    10     3     6    1
    11     7     8   ar
    12     7     9   ar
    13    10    19   ar
    14    10    11   ar
    15    11    12   ar
    16    11    23    1
    17    12    13   ar
    18    12    24    1
    19    13    14    1
    20    13    18   ar
    21    14    15    1
    22    14    16    1
    23    14    17    1
    24    18    19   ar
    25    18    25    1
    26    19    26    1
