@<TRIPOS>MOLECULE
ZINC000006844205
 41 43 0 0 0
SMALL
GASTEIGER

@<TRIPOS>ATOM
      1 C          -0.0187    1.5258    0.0104 C.3     1  UNL1       -0.0423
      2 C           0.0021   -0.0041    0.0020 C.3     1  UNL1        0.0691
      3 H           0.5109   -0.3640   -0.8922 H       1  UNL1        0.0541
      4 C          -1.4108   -0.5392    0.0421 C.ar    1  UNL1        0.0374
      5 C          -2.3276   -0.5049   -0.9375 C.ar    1  UNL1       -0.0394
      6 C          -3.4969   -1.1161   -0.4388 C.ar    1  UNL1       -0.0439
      7 C          -3.2431   -1.5016    0.8295 C.ar    1  UNL1        0.0049
      8 N          -1.9623   -1.1554    1.1324 N.ar    1  UNL1       -0.3478
      9 C          -1.2609   -1.3933    2.3988 C.3     1  UNL1        0.0375
     10 C          -0.0447   -0.4654    2.4842 C.3     1  UNL1        0.0391
     11 N           0.6885   -0.5047    1.2075 N.3     1  UNL1       -0.1664
     12 S           2.2344   -1.0933    1.1299 S.O2    1  UNL1        0.0615
     13 O           2.8289   -0.5090   -0.0208 O.2     1  UNL1       -0.1528
     14 O           2.7787   -0.9647    2.4362 O.2     1  UNL1       -0.1528
     15 C           2.1188   -2.8216    0.8071 C.ar    1  UNL1        0.1066
     16 C           2.0438   -3.7174    1.8572 C.ar    1  UNL1       -0.0237
     17 C           1.9531   -5.0733    1.6039 C.ar    1  UNL1        0.0572
     18 C           1.8718   -6.0500    2.7487 C.3     1  UNL1        0.4175
     19 F           0.5309   -6.2612    3.0871 F       1  UNL1       -0.1659
     20 F           2.4536   -7.2640    2.3683 F       1  UNL1       -0.1659
     21 F           2.5554   -5.5312    3.8536 F       1  UNL1       -0.1659
     22 C           1.9366   -5.5334    0.3005 C.ar    1  UNL1       -0.0384
     23 C           2.0112   -4.6375   -0.7497 C.ar    1  UNL1        0.0572
     24 C           1.9937   -5.1391   -2.1707 C.3     1  UNL1        0.4175
     25 F           1.8972   -6.5348   -2.1714 F       1  UNL1       -0.1659
     26 F           0.8943   -4.5953   -2.8436 F       1  UNL1       -0.1659
     27 F           3.1733   -4.7528   -2.8161 F       1  UNL1       -0.1659
     28 C           2.0976   -3.2813   -0.4964 C.ar    1  UNL1       -0.0237
     29 H           1.0039    1.9031    0.0027 H       1  UNL1        0.0249
     30 H          -0.5459    1.8868   -0.8726 H       1  UNL1        0.0249
     31 H          -0.5289    1.8773    0.9072 H       1  UNL1        0.0249
     32 H          -2.1947   -0.0866   -1.9243 H       1  UNL1        0.0636
     33 H          -4.4253   -1.2509   -0.9739 H       1  UNL1        0.0633
     34 H          -3.9372   -1.9994    1.4905 H       1  UNL1        0.0809
     35 H          -1.9339   -1.1891    3.2316 H       1  UNL1        0.0505
     36 H          -0.9308   -2.4312    2.4427 H       1  UNL1        0.0505
     37 H          -0.3775    0.5535    2.6821 H       1  UNL1        0.0462
     38 H           0.6106   -0.7975    3.2895 H       1  UNL1        0.0462
     39 H           2.0563   -3.3580    2.8756 H       1  UNL1        0.0642
     40 H           1.8658   -6.5927    0.1026 H       1  UNL1        0.0629
     41 H           2.1558   -2.5814   -1.3169 H       1  UNL1        0.0642
@<TRIPOS>BOND
     1     1     2    1
     2     1    29    1
     3     1    30    1
     4     1    31    1
     5     2     3    1
     6     2    11    1
     7     2     4    1
     8     4     8   ar
     9     4     5   ar
    10     5     6   ar
    11     5    32    1
    12     6     7   ar
    13     6    33    1
    14     7     8   ar
    15     7    34    1
    16     8     9    1
    17     9    10    1
    18     9    35    1
    19     9    36    1
    20    10    11    1
    21    10    37    1
    22    10    38    1
    23    12    11    1
    24    12    13    2
    25    12    14    2
    26    12    15    1
    27    15    28   ar
    28    15    16   ar
    29    16    17   ar
    30    16    39    1
    31    17    18    1
    32    17    22   ar
    33    18    19    1
    34    18    20    1
    35    18    21    1
    36    22    23   ar
    37    22    40    1
    38    23    24    1
    39    23    28   ar
    40    24    25    1
    41    24    26    1
    42    24    27    1
    43    28    41    1
