@<TRIPOS>MOLECULE
ZINC000032753235
 45 46 0 0 0
SMALL
GASTEIGER

@<TRIPOS>ATOM
      1 C          -0.0178    1.4648    0.0101 C.3     1  UNL1       -0.0126
      2 N           0.0021   -0.0041    0.0020 N.3     1  UNL1       -0.3002
      3 C           0.7859   -0.5261    1.1294 C.3     1  UNL1       -0.0126
      4 C          -1.3620   -0.5491    0.0121 C.3     1  UNL1        0.0754
      5 C          -1.3118   -2.0335   -0.2431 C.2     1  UNL1        0.2297
      6 O          -0.2447   -2.5832   -0.4163 O.2     1  UNL1       -0.2742
      7 N          -2.4526   -2.7501   -0.2788 N.am    1  UNL1       -0.2979
      8 C          -3.7533   -2.0964   -0.0767 C.3     1  UNL1        0.0292
      9 C          -4.6532   -2.4139   -1.2773 C.3     1  UNL1        0.0363
     10 N          -4.6190   -3.8631   -1.5196 N.3     1  UNL1       -0.1736
     11 S          -6.0209   -4.7434   -1.5646 S.O2    1  UNL1        0.0609
     12 O          -5.6627   -6.0841   -1.2589 O.2     1  UNL1       -0.1528
     13 O          -6.9814   -4.0066   -0.8204 O.2     1  UNL1       -0.1528
     14 C          -6.5814   -4.7466   -3.2350 C.ar    1  UNL1        0.1055
     15 C          -7.4283   -3.7496   -3.6818 C.ar    1  UNL1       -0.0348
     16 C          -7.8681   -3.7521   -4.9923 C.ar    1  UNL1       -0.0483
     17 C          -7.4605   -4.7514   -5.8562 C.ar    1  UNL1        0.0549
     18 C          -7.9403   -4.7544   -7.2848 C.3     1  UNL1        0.4174
     19 F          -7.0470   -4.0265   -8.0783 F       1  UNL1       -0.1659
     20 F          -8.0107   -6.0718   -7.7503 F       1  UNL1       -0.1659
     21 F          -9.2085   -4.1676   -7.3520 F       1  UNL1       -0.1659
     22 C          -6.6124   -5.7476   -5.4098 C.ar    1  UNL1       -0.0483
     23 C          -6.1696   -5.7429   -4.1003 C.ar    1  UNL1       -0.0348
     24 C          -3.3184   -4.5168   -1.7217 C.3     1  UNL1        0.0363
     25 C          -2.4188   -4.1984   -0.5266 C.3     1  UNL1        0.0292
     26 H           1.0047    1.8421    0.0024 H       1  UNL1        0.0391
     27 H          -0.5450    1.8259   -0.8730 H       1  UNL1        0.0391
     28 H          -0.5280    1.8163    0.9069 H       1  UNL1        0.0391
     29 H           0.3442   -0.1877    2.0667 H       1  UNL1        0.0391
     30 H           0.7843   -1.6157    1.0994 H       1  UNL1        0.0391
     31 H           1.8110   -0.1623    1.0586 H       1  UNL1        0.0391
     32 H          -1.8206   -0.3627    0.9832 H       1  UNL1        0.0522
     33 H          -1.9520   -0.0663   -0.7669 H       1  UNL1        0.0522
     34 H          -4.2144   -2.4736    0.8361 H       1  UNL1        0.0478
     35 H          -3.6127   -1.0182    0.0001 H       1  UNL1        0.0478
     36 H          -5.6753   -2.1033   -1.0606 H       1  UNL1        0.0459
     37 H          -4.2871   -1.8870   -2.1584 H       1  UNL1        0.0459
     38 H          -7.7468   -2.9690   -3.0068 H       1  UNL1        0.0637
     39 H          -8.5304   -2.9736   -5.3412 H       1  UNL1        0.0624
     40 H          -6.2937   -6.5280   -6.0849 H       1  UNL1        0.0624
     41 H          -5.5070   -6.5212   -3.7516 H       1  UNL1        0.0637
     42 H          -3.4589   -5.5950   -1.7985 H       1  UNL1        0.0459
     43 H          -2.8572   -4.1396   -2.6344 H       1  UNL1        0.0459
     44 H          -1.3972   -4.5095   -0.7446 H       1  UNL1        0.0478
     45 H          -2.7834   -4.7238    0.3560 H       1  UNL1        0.0478
@<TRIPOS>BOND
     1     1     2    1
     2     1    26    1
     3     1    27    1
     4     1    28    1
     5     2     3    1
     6     2     4    1
     7     3    29    1
     8     3    30    1
     9     3    31    1
    10     4     5    1
    11     4    32    1
    12     4    33    1
    13     5     6    2
    14     5     7   am
    15     7    25    1
    16     7     8    1
    17     8     9    1
    18     8    34    1
    19     8    35    1
    20     9    10    1
    21     9    36    1
    22     9    37    1
    23    11    10    1
    24    10    24    1
    25    11    12    2
    26    11    13    2
    27    11    14    1
    28    14    23   ar
    29    14    15   ar
    30    15    16   ar
    31    15    38    1
    32    16    17   ar
    33    16    39    1
    34    17    18    1
    35    17    22   ar
    36    18    19    1
    37    18    20    1
    38    18    21    1
    39    22    23   ar
    40    22    40    1
    41    23    41    1
    42    24    25    1
    43    24    42    1
    44    24    43    1
    45    25    44    1
    46    25    45    1
