@<TRIPOS>MOLECULE
ZINC000171382982
 32 33 0 0 0
SMALL
GASTEIGER

@<TRIPOS>ATOM
      1 O          -0.0866   -0.1580    0.6721 O.co2   1  UNL1       -0.2460
      2 C          -0.0435    1.0605    0.6739 C.2     1  UNL1        0.3603
      3 O           1.0117    1.6329    0.8868 O.co2   1  UNL1       -0.2460
      4 C          -1.2934    1.8590    0.4068 C.3     1  UNL1        0.0762
      5 H          -2.1842    1.2518    0.5673 H       1  UNL1        0.0428
      6 C          -1.2771    2.4548   -1.0257 C.3     1  UNL1       -0.0242
      7 C          -2.1735    3.7038   -0.8908 C.3     1  UNL1        0.0213
      8 N          -2.1897    4.0779    0.5309 N.3     1  UNL1       -0.1757
      9 S          -3.0347    5.3422    1.1867 S.O2    1  UNL1        0.0623
     10 O          -2.2775    5.7963    2.3001 O.2     1  UNL1       -0.1528
     11 O          -3.4036    6.1835    0.1025 O.2     1  UNL1       -0.1528
     12 C          -4.5338    4.6851    1.8391 C.ar    1  UNL1        0.1242
     13 C          -4.7476    4.6753    3.2043 C.ar    1  UNL1       -0.0223
     14 C          -5.9239    4.1597    3.7164 C.ar    1  UNL1        0.0567
     15 C          -6.1565    4.1494    5.2053 C.3     1  UNL1        0.4175
     16 F          -6.7857    5.3391    5.5873 F       1  UNL1       -0.1659
     17 F          -6.9701    3.0624    5.5427 F       1  UNL1       -0.1659
     18 F          -4.9297    4.0370    5.8682 F       1  UNL1       -0.1659
     19 C          -6.8867    3.6541    2.8633 C.ar    1  UNL1       -0.0486
     20 C          -6.6739    3.6633    1.4974 C.ar    1  UNL1       -0.0410
     21 C          -5.4995    4.1839    0.9842 C.ar    1  UNL1        0.0673
     22 CL         -5.2315    4.1958   -0.7310 Cl      1  UNL1       -0.0815
     23 C          -1.3304    3.1400    1.2770 C.3     1  UNL1        0.0336
     24 H          -0.2646    2.7363   -1.3149 H       1  UNL1        0.0286
     25 H          -1.7020    1.7507   -1.7411 H       1  UNL1        0.0286
     26 H          -1.7631    4.5206   -1.4844 H       1  UNL1        0.0444
     27 H          -3.1849    3.4720   -1.2246 H       1  UNL1        0.0444
     28 H          -3.9957    5.0702    3.8714 H       1  UNL1        0.0643
     29 H          -7.8053    3.2515    3.2638 H       1  UNL1        0.0623
     30 H          -7.4263    3.2683    0.8309 H       1  UNL1        0.0633
     31 H          -1.7632    2.9240    2.2538 H       1  UNL1        0.0452
     32 H          -0.3271    3.5514    1.3883 H       1  UNL1        0.0452
@<TRIPOS>BOND
     1     1     2   ar
     2     2     3   ar
     3     2     4    1
     4     4     5    1
     5     4    23    1
     6     4     6    1
     7     6     7    1
     8     6    24    1
     9     6    25    1
    10     7     8    1
    11     7    26    1
    12     7    27    1
    13     9     8    1
    14     8    23    1
    15     9    10    2
    16     9    11    2
    17     9    12    1
    18    12    21   ar
    19    12    13   ar
    20    13    14   ar
    21    13    28    1
    22    14    15    1
    23    14    19   ar
    24    15    16    1
    25    15    17    1
    26    15    18    1
    27    19    20   ar
    28    19    29    1
    29    20    21   ar
    30    20    30    1
    31    21    22    1
    32    23    31    1
    33    23    32    1
