@<TRIPOS>MOLECULE
ZINC000222757353
 48 49 0 0 0
SMALL
GASTEIGER

@<TRIPOS>ATOM
      1 C           0.0013    1.4828    0.0260 C.3     1  UNL1        0.0086
      2 N           0.0197    0.0180    0.0252 N.3     1  UNL1       -0.1827
      3 C           0.0474   -0.7149    1.2934 C.3     1  UNL1        0.0086
      4 S           0.0092   -0.8095   -1.4092 S.O2    1  UNL1        0.0604
      5 O          -0.5149   -2.0993   -1.1245 O.2     1  UNL1       -0.1529
      6 O          -0.5605    0.0655   -2.3731 O.2     1  UNL1       -0.1529
      7 C           1.6886   -1.0489   -1.8855 C.ar    1  UNL1        0.1057
      8 C           2.3263   -0.1023   -2.6658 C.ar    1  UNL1       -0.0319
      9 C           3.6430   -0.2876   -3.0406 C.ar    1  UNL1       -0.0181
     10 C           4.3255   -1.4246   -2.6330 C.ar    1  UNL1        0.1213
     11 O           5.6209   -1.6091   -3.0001 O.3     1  UNL1       -0.4828
     12 C           6.2607   -2.8027   -2.5441 C.3     1  UNL1        0.1655
     13 C           7.6815   -2.8340   -3.0455 C.2     1  UNL1        0.2548
     14 O           8.1046   -1.9237   -3.7263 O.2     1  UNL1       -0.2717
     15 N           8.4821   -3.8735   -2.7374 N.am    1  UNL1       -0.2827
     16 C           9.7689   -3.9509   -3.2816 C.ar    1  UNL1        0.0335
     17 C          10.3096   -5.1854   -3.6165 C.ar    1  UNL1       -0.0402
     18 C          11.5800   -5.2584   -4.1534 C.ar    1  UNL1       -0.0564
     19 C          12.3135   -4.1040   -4.3572 C.ar    1  UNL1       -0.0385
     20 C          13.6996   -4.1875   -4.9429 C.3     1  UNL1        0.0489
     21 C          13.6164   -4.0996   -6.4450 C.2     1  UNL1        0.2148
     22 N          14.7406   -4.1528   -7.1865 N.am    1  UNL1       -0.3291
     23 O          12.5378   -3.9809   -6.9867 O.2     1  UNL1       -0.2757
     24 C          11.7777   -2.8732   -4.0253 C.ar    1  UNL1       -0.0564
     25 C          10.5057   -2.7930   -3.4933 C.ar    1  UNL1       -0.0402
     26 C           3.6835   -2.3728   -1.8498 C.ar    1  UNL1       -0.0181
     27 C           2.3682   -2.1804   -1.4736 C.ar    1  UNL1       -0.0319
     28 H           1.0241    1.8591    0.0111 H       1  UNL1        0.0408
     29 H          -0.5301    1.8399   -0.8563 H       1  UNL1        0.0408
     30 H          -0.5041    1.8394    0.9235 H       1  UNL1        0.0408
     31 H           0.0506   -0.0069    2.1222 H       1  UNL1        0.0408
     32 H          -0.8336   -1.3527    1.3639 H       1  UNL1        0.0408
     33 H           0.9460   -1.3303    1.3379 H       1  UNL1        0.0408
     34 H           1.7946    0.7827   -2.9828 H       1  UNL1        0.0638
     35 H           4.1404    0.4518   -3.6507 H       1  UNL1        0.0655
     36 H           6.2595   -2.8221   -1.4543 H       1  UNL1        0.0795
     37 H           5.7223   -3.6712   -2.9235 H       1  UNL1        0.0795
     38 H           8.1663   -4.5681   -2.1384 H       1  UNL1        0.1549
     39 H           9.7376   -6.0874   -3.4569 H       1  UNL1        0.0636
     40 H          12.0011   -6.2182   -4.4141 H       1  UNL1        0.0621
     41 H          14.3044   -3.3637   -4.5637 H       1  UNL1        0.0407
     42 H          14.1575   -5.1351   -4.6592 H       1  UNL1        0.0407
     43 H          15.6033   -4.2478   -6.7532 H       1  UNL1        0.1449
     44 H          14.6870   -4.0963   -8.1533 H       1  UNL1        0.1449
     45 H          12.3531   -1.9735   -4.1856 H       1  UNL1        0.0621
     46 H          10.0878   -1.8314   -3.2342 H       1  UNL1        0.0636
     47 H           4.2126   -3.2589   -1.5315 H       1  UNL1        0.0655
     48 H           1.8681   -2.9181   -0.8636 H       1  UNL1        0.0638
@<TRIPOS>BOND
     1     1     2    1
     2     1    28    1
     3     1    29    1
     4     1    30    1
     5     2     3    1
     6     4     2    1
     7     3    31    1
     8     3    32    1
     9     3    33    1
    10     4     5    2
    11     4     6    2
    12     4     7    1
    13     7    27   ar
    14     7     8   ar
    15     8     9   ar
    16     8    34    1
    17     9    10   ar
    18     9    35    1
    19    10    11    1
    20    10    26   ar
    21    11    12    1
    22    12    13    1
    23    12    36    1
    24    12    37    1
    25    13    14    2
    26    13    15   am
    27    15    16    1
    28    15    38    1
    29    16    25   ar
    30    16    17   ar
    31    17    18   ar
    32    17    39    1
    33    18    19   ar
    34    18    40    1
    35    19    20    1
    36    19    24   ar
    37    20    21    1
    38    20    41    1
    39    20    42    1
    40    21    22   am
    41    21    23    2
    42    22    43    1
    43    22    44    1
    44    24    25   ar
    45    24    45    1
    46    25    46    1
    47    26    27   ar
    48    26    47    1
    49    27    48    1
