@<TRIPOS>MOLECULE
ZINC000408533124
 59 60 0 0 0
SMALL
GASTEIGER

@<TRIPOS>ATOM
      1 C          -0.0187    1.5258    0.0104 C.3     1  UNL1       -0.0636
      2 C           0.0021   -0.0041    0.0020 C.3     1  UNL1       -0.0376
      3 C           0.7182   -0.4975   -1.2568 C.3     1  UNL1        0.0201
      4 H           0.2444   -0.0644   -2.1377 H       1  UNL1        0.0495
      5 C           0.6303   -2.0233   -1.3286 C.3     1  UNL1       -0.0466
      6 N           2.1249   -0.0911   -1.2094 N.am    1  UNL1       -0.3116
      7 C           2.8241    0.0515   -2.3527 C.2     1  UNL1        0.2290
      8 O           2.2887   -0.1566   -3.4209 O.2     1  UNL1       -0.2743
      9 C           4.2711    0.4696   -2.3039 C.3     1  UNL1        0.0968
     10 N           4.8016    0.5526   -3.6670 N.3     1  UNL1       -0.1675
     11 C           4.6200    1.7771   -4.4504 C.3     1  UNL1        0.0250
     12 C           5.7353    2.7687   -4.1130 C.3     1  UNL1       -0.0132
     13 C           5.5484    4.0283   -4.9189 C.ar    1  UNL1       -0.0461
     14 C           6.1322    4.1435   -6.1666 C.ar    1  UNL1       -0.0585
     15 C           5.9608    5.2989   -6.9058 C.ar    1  UNL1       -0.0615
     16 C           5.2052    6.3390   -6.3975 C.ar    1  UNL1       -0.0617
     17 C           4.6207    6.2234   -5.1502 C.ar    1  UNL1       -0.0615
     18 C           4.7886    5.0663   -4.4128 C.ar    1  UNL1       -0.0585
     19 S           5.6067   -0.7377   -4.3221 S.O2    1  UNL1        0.0613
     20 O           6.4435   -0.2121   -5.3433 O.2     1  UNL1       -0.1528
     21 O           6.0998   -1.5001   -3.2290 O.2     1  UNL1       -0.1528
     22 C           4.4078   -1.7447   -5.1304 C.ar    1  UNL1        0.1060
     23 C           3.7695   -2.7526   -4.4321 C.ar    1  UNL1       -0.0319
     24 C           2.8287   -3.5433   -5.0634 C.ar    1  UNL1       -0.0178
     25 C           2.5249   -3.3251   -6.3992 C.ar    1  UNL1        0.1231
     26 O           1.5995   -4.1012   -7.0223 O.3     1  UNL1       -0.4948
     27 C           0.9783   -5.1239   -6.2411 C.3     1  UNL1        0.0788
     28 C           3.1670   -2.3128   -7.0979 C.ar    1  UNL1       -0.0070
     29 C           2.8390   -2.0727   -8.5490 C.3     1  UNL1       -0.0362
     30 C           4.1029   -1.5217   -6.4607 C.ar    1  UNL1       -0.0290
     31 H           1.0039    1.9031    0.0027 H       1  UNL1        0.0230
     32 H          -0.5459    1.8868   -0.8726 H       1  UNL1        0.0230
     33 H          -0.5289    1.8773    0.9072 H       1  UNL1        0.0230
     34 H           0.5293   -0.3651    0.8851 H       1  UNL1        0.0280
     35 H          -1.0205   -0.3814    0.0098 H       1  UNL1        0.0280
     36 H           1.1041   -2.4564   -0.4477 H       1  UNL1        0.0247
     37 H          -0.4163   -2.3257   -1.3639 H       1  UNL1        0.0247
     38 H           1.1405   -2.3748   -2.2254 H       1  UNL1        0.0247
     39 H           2.5531    0.0754   -0.3551 H       1  UNL1        0.1490
     40 H           4.3517    1.4443   -1.8227 H       1  UNL1        0.0539
     41 H           4.8424   -0.2644   -1.7357 H       1  UNL1        0.0539
     42 H           4.6563    1.5373   -5.5131 H       1  UNL1        0.0447
     43 H           3.6540    2.2217   -4.2111 H       1  UNL1        0.0447
     44 H           5.6990    3.0085   -3.0503 H       1  UNL1        0.0326
     45 H           6.7013    2.3241   -4.3523 H       1  UNL1        0.0326
     46 H           6.7225    3.3309   -6.5637 H       1  UNL1        0.0620
     47 H           6.4174    5.3892   -7.8804 H       1  UNL1        0.0618
     48 H           5.0719    7.2420   -6.9748 H       1  UNL1        0.0618
     49 H           4.0307    7.0361   -4.7529 H       1  UNL1        0.0618
     50 H           4.3319    4.9760   -3.4383 H       1  UNL1        0.0620
     51 H           4.0066   -2.9224   -3.3922 H       1  UNL1        0.0638
     52 H           2.3305   -4.3309   -4.5176 H       1  UNL1        0.0655
     53 H           0.4596   -4.6710   -5.3962 H       1  UNL1        0.0660
     54 H           0.2627   -5.6678   -6.8576 H       1  UNL1        0.0660
     55 H           1.7389   -5.8128   -5.8736 H       1  UNL1        0.0660
     56 H           2.0213   -1.3557   -8.6229 H       1  UNL1        0.0279
     57 H           3.7169   -1.6763   -9.0592 H       1  UNL1        0.0279
     58 H           2.5415   -3.0123   -9.0146 H       1  UNL1        0.0279
     59 H           4.6027   -0.7334   -7.0040 H       1  UNL1        0.0641
@<TRIPOS>BOND
     1     1     2    1
     2     1    31    1
     3     1    32    1
     4     1    33    1
     5     2     3    1
     6     2    34    1
     7     2    35    1
     8     3     4    1
     9     3     5    1
    10     3     6    1
    11     5    36    1
    12     5    37    1
    13     5    38    1
    14     6     7   am
    15     6    39    1
    16     7     8    2
    17     7     9    1
    18     9    10    1
    19     9    40    1
    20     9    41    1
    21    10    11    1
    22    19    10    1
    23    11    12    1
    24    11    42    1
    25    11    43    1
    26    12    13    1
    27    12    44    1
    28    12    45    1
    29    13    18   ar
    30    13    14   ar
    31    14    15   ar
    32    14    46    1
    33    15    16   ar
    34    15    47    1
    35    16    17   ar
    36    16    48    1
    37    17    18   ar
    38    17    49    1
    39    18    50    1
    40    19    20    2
    41    19    21    2
    42    19    22    1
    43    22    30   ar
    44    22    23   ar
    45    23    24   ar
    46    23    51    1
    47    24    25   ar
    48    24    52    1
    49    25    26    1
    50    25    28   ar
    51    26    27    1
    52    27    53    1
    53    27    54    1
    54    27    55    1
    55    28    29    1
    56    28    30   ar
    57    29    56    1
    58    29    57    1
    59    29    58    1
    60    30    59    1
