@<TRIPOS>MOLECULE
ZINC000408607068
 56 57 0 0 0
SMALL
GASTEIGER

@<TRIPOS>ATOM
      1 C          -0.0187    1.5258    0.0104 C.3     1  UNL1       -0.0507
      2 C           0.0021   -0.0041    0.0020 C.3     1  UNL1        0.0177
      3 N          -1.3723   -0.5112    0.0124 N.3     1  UNL1       -0.1771
      4 C          -2.1099   -0.6542   -1.2453 C.3     1  UNL1        0.0177
      5 C          -1.7727   -2.0031   -1.8836 C.3     1  UNL1       -0.0507
      6 S          -2.0922   -0.9227    1.4458 S.O2    1  UNL1        0.0608
      7 O          -3.1196   -1.8512    1.1269 O.2     1  UNL1       -0.1528
      8 O          -1.0393   -1.2108    2.3555 O.2     1  UNL1       -0.1528
      9 C          -2.8978    0.5199    2.0580 C.ar    1  UNL1        0.1057
     10 C          -2.2144    1.3948    2.8821 C.ar    1  UNL1       -0.0319
     11 C          -2.8437    2.5265    3.3633 C.ar    1  UNL1       -0.0181
     12 C          -4.1624    2.7850    3.0187 C.ar    1  UNL1        0.1213
     13 O          -4.7836    3.8979    3.4905 O.3     1  UNL1       -0.4828
     14 C          -6.1417    4.0999    3.0945 C.3     1  UNL1        0.1651
     15 C          -6.6600    5.3744    3.7095 C.2     1  UNL1        0.2509
     16 O          -5.9375    6.0437    4.4172 O.2     1  UNL1       -0.2721
     17 N          -7.9264    5.7703    3.4731 N.am    1  UNL1       -0.3097
     18 C          -8.4302    7.0092    4.0709 C.3     1  UNL1        0.0232
     19 C          -8.0778    8.1760    3.1885 C.3     1  UNL1       -0.0345
     20 C          -7.7860    9.4569    3.9934 C.3     1  UNL1       -0.0514
     21 C          -8.7715    9.6677    5.1588 C.3     1  UNL1       -0.0530
     22 C         -10.1917    9.3494    4.7766 C.3     1  UNL1       -0.0530
     23 C         -10.4882    7.8871    5.1676 C.3     1  UNL1       -0.0514
     24 C          -9.9657    6.9365    4.1972 C.3     1  UNL1       -0.0345
     25 C          -4.8459    1.9058    2.1913 C.ar    1  UNL1       -0.0181
     26 C          -4.2105    0.7780    1.7088 C.ar    1  UNL1       -0.0319
     27 H           1.0039    1.9031    0.0027 H       1  UNL1        0.0243
     28 H          -0.5459    1.8868   -0.8726 H       1  UNL1        0.0243
     29 H          -0.5289    1.8773    0.9072 H       1  UNL1        0.0243
     30 H           0.5123   -0.3556   -0.8948 H       1  UNL1        0.0441
     31 H           0.5293   -0.3651    0.8851 H       1  UNL1        0.0441
     32 H          -3.1804   -0.6037   -1.0465 H       1  UNL1        0.0441
     33 H          -1.8283    0.1500   -1.9251 H       1  UNL1        0.0441
     34 H          -0.7022   -2.0536   -2.0825 H       1  UNL1        0.0243
     35 H          -2.0544   -2.8073   -1.2038 H       1  UNL1        0.0243
     36 H          -2.3215   -2.1096   -2.8194 H       1  UNL1        0.0243
     37 H          -1.1877    1.1931    3.1500 H       1  UNL1        0.0638
     38 H          -2.3096    3.2093    4.0075 H       1  UNL1        0.0655
     39 H          -6.1966    4.1721    2.0083 H       1  UNL1        0.0795
     40 H          -6.7479    3.2600    3.4339 H       1  UNL1        0.0795
     41 H          -8.5043    5.2349    2.9071 H       1  UNL1        0.1491
     42 H          -7.9878    7.1459    5.0576 H       1  UNL1        0.0498
     43 H          -7.1961    7.9202    2.6010 H       1  UNL1        0.0283
     44 H          -8.9084    8.3679    2.5092 H       1  UNL1        0.0283
     45 H          -6.7745    9.3969    4.3949 H       1  UNL1        0.0266
     46 H          -7.8456   10.3144    3.3232 H       1  UNL1        0.0266
     47 H          -8.4776    9.0262    5.9895 H       1  UNL1        0.0265
     48 H          -8.7179   10.7072    5.4823 H       1  UNL1        0.0265
     49 H         -10.8718   10.0155    5.3076 H       1  UNL1        0.0265
     50 H         -10.3181    9.4737    3.7012 H       1  UNL1        0.0265
     51 H         -10.0379    7.6832    6.1391 H       1  UNL1        0.0266
     52 H         -11.5672    7.7545    5.2459 H       1  UNL1        0.0266
     53 H         -10.4102    7.1453    3.2240 H       1  UNL1        0.0283
     54 H         -10.2475    5.9290    4.5030 H       1  UNL1        0.0283
     55 H          -5.8726    2.1046    1.9219 H       1  UNL1        0.0655
     56 H          -4.7420    0.0934    1.0644 H       1  UNL1        0.0638
@<TRIPOS>BOND
     1     1     2    1
     2     1    27    1
     3     1    28    1
     4     1    29    1
     5     2     3    1
     6     2    30    1
     7     2    31    1
     8     3     4    1
     9     6     3    1
    10     4     5    1
    11     4    32    1
    12     4    33    1
    13     5    34    1
    14     5    35    1
    15     5    36    1
    16     6     7    2
    17     6     8    2
    18     6     9    1
    19     9    26   ar
    20     9    10   ar
    21    10    11   ar
    22    10    37    1
    23    11    12   ar
    24    11    38    1
    25    12    13    1
    26    12    25   ar
    27    13    14    1
    28    14    15    1
    29    14    39    1
    30    14    40    1
    31    15    16    2
    32    15    17   am
    33    17    18    1
    34    17    41    1
    35    18    24    1
    36    18    19    1
    37    18    42    1
    38    19    20    1
    39    19    43    1
    40    19    44    1
    41    20    21    1
    42    20    45    1
    43    20    46    1
    44    21    22    1
    45    21    47    1
    46    21    48    1
    47    22    23    1
    48    22    49    1
    49    22    50    1
    50    23    24    1
    51    23    51    1
    52    23    52    1
    53    24    53    1
    54    24    54    1
    55    25    26   ar
    56    25    55    1
    57    26    56    1
