@<TRIPOS>MOLECULE
ZINC000408608265
 59 61 0 0 0
SMALL
GASTEIGER

@<TRIPOS>ATOM
      1 C          -0.0187    1.5258    0.0104 C.3     1  UNL1       -0.0466
      2 C           0.0021   -0.0041    0.0020 C.3     1  UNL1        0.0206
      3 H           0.5123   -0.3556   -0.8948 H       1  UNL1        0.0495
      4 C          -1.4333   -0.5336    0.0129 C.3     1  UNL1       -0.0308
      5 C          -1.4157   -2.0577   -0.1212 C.3     1  UNL1       -0.0260
      6 C          -2.8295   -2.5793   -0.1105 C.ar    1  UNL1       -0.0473
      7 C          -3.4324   -2.9175    1.0866 C.ar    1  UNL1       -0.0586
      8 C          -4.7292   -3.3959    1.0964 C.ar    1  UNL1       -0.0615
      9 C          -5.4233   -3.5358   -0.0908 C.ar    1  UNL1       -0.0617
     10 C          -4.8208   -3.1967   -1.2878 C.ar    1  UNL1       -0.0615
     11 C          -3.5254   -2.7142   -1.2973 C.ar    1  UNL1       -0.0586
     12 N           0.7106   -0.4894    1.1889 N.am    1  UNL1       -0.3116
     13 C           2.0538   -0.5998    1.1737 C.2     1  UNL1        0.2290
     14 O           2.6758   -0.2974    0.1774 O.2     1  UNL1       -0.2743
     15 C           2.7826   -1.0990    2.3946 C.3     1  UNL1        0.0971
     16 N           4.2226   -1.1273    2.1261 N.3     1  UNL1       -0.1635
     17 C           5.0266    0.0829    2.3137 C.3     1  UNL1        0.0461
     18 C           5.4443    0.1897    3.7577 C.ar    1  UNL1       -0.0315
     19 C           4.6390    0.8566    4.6622 C.ar    1  UNL1       -0.0546
     20 C           5.0210    0.9551    5.9866 C.ar    1  UNL1       -0.0262
     21 C           6.2106    0.3853    6.4077 C.ar    1  UNL1        0.1234
     22 F           6.5848    0.4806    7.7023 F       1  UNL1       -0.2055
     23 C           7.0161   -0.2828    5.5011 C.ar    1  UNL1       -0.0262
     24 C           6.6296   -0.3842    4.1781 C.ar    1  UNL1       -0.0546
     25 S           4.9414   -2.5273    1.6107 S.O2    1  UNL1        0.0616
     26 O           6.2767   -2.4948    2.0956 O.2     1  UNL1       -0.1528
     27 O           4.0321   -3.5781    1.9076 O.2     1  UNL1       -0.1528
     28 C           5.0478   -2.4428   -0.1461 C.ar    1  UNL1        0.1055
     29 C           4.0119   -2.9234   -0.9251 C.ar    1  UNL1       -0.0353
     30 C           4.0953   -2.8572   -2.3033 C.ar    1  UNL1       -0.0599
     31 C           5.2144   -2.3099   -2.9025 C.ar    1  UNL1       -0.0616
     32 C           6.2499   -1.8285   -2.1235 C.ar    1  UNL1       -0.0599
     33 C           6.1646   -1.8908   -0.7451 C.ar    1  UNL1       -0.0353
     34 H           1.0039    1.9031    0.0027 H       1  UNL1        0.0247
     35 H          -0.5459    1.8868   -0.8726 H       1  UNL1        0.0247
     36 H          -0.5289    1.8773    0.9072 H       1  UNL1        0.0247
     37 H          -1.9156   -0.2570    0.9504 H       1  UNL1        0.0286
     38 H          -1.9862   -0.1019   -0.8214 H       1  UNL1        0.0286
     39 H          -0.9334   -2.3344   -1.0587 H       1  UNL1        0.0314
     40 H          -0.8628   -2.4894    0.7131 H       1  UNL1        0.0314
     41 H          -2.8901   -2.8082    2.0141 H       1  UNL1        0.0620
     42 H          -5.2000   -3.6608    2.0316 H       1  UNL1        0.0618
     43 H          -6.4363   -3.9103   -0.0832 H       1  UNL1        0.0618
     44 H          -5.3630   -3.3063   -2.2154 H       1  UNL1        0.0618
     45 H          -3.0546   -2.4493   -2.2324 H       1  UNL1        0.0620
     46 H           0.2131   -0.7312    1.9857 H       1  UNL1        0.1490
     47 H           2.5826   -0.4337    3.2345 H       1  UNL1        0.0539
     48 H           2.4385   -2.1044    2.6374 H       1  UNL1        0.0539
     49 H           5.9132    0.0316    1.6818 H       1  UNL1        0.0493
     50 H           4.4360    0.9574    2.0407 H       1  UNL1        0.0493
     51 H           3.7112    1.3010    4.3335 H       1  UNL1        0.0622
     52 H           4.3922    1.4768    6.6929 H       1  UNL1        0.0646
     53 H           7.9443   -0.7274    5.8284 H       1  UNL1        0.0646
     54 H           7.2576   -0.9056    3.4708 H       1  UNL1        0.0622
     55 H           3.1376   -3.3510   -0.4570 H       1  UNL1        0.0637
     56 H           3.2863   -3.2333   -2.9120 H       1  UNL1        0.0618
     57 H           5.2799   -2.2588   -3.9793 H       1  UNL1        0.0618
     58 H           7.1243   -1.4012   -2.5916 H       1  UNL1        0.0618
     59 H           6.9735   -1.5147   -0.1365 H       1  UNL1        0.0637
@<TRIPOS>BOND
     1     1     2    1
     2     1    34    1
     3     1    35    1
     4     1    36    1
     5     2     3    1
     6     2     4    1
     7     2    12    1
     8     4     5    1
     9     4    37    1
    10     4    38    1
    11     5     6    1
    12     5    39    1
    13     5    40    1
    14     6    11   ar
    15     6     7   ar
    16     7     8   ar
    17     7    41    1
    18     8     9   ar
    19     8    42    1
    20     9    10   ar
    21     9    43    1
    22    10    11   ar
    23    10    44    1
    24    11    45    1
    25    12    13   am
    26    12    46    1
    27    13    14    2
    28    13    15    1
    29    15    16    1
    30    15    47    1
    31    15    48    1
    32    16    17    1
    33    25    16    1
    34    17    18    1
    35    17    49    1
    36    17    50    1
    37    18    24   ar
    38    18    19   ar
    39    19    20   ar
    40    19    51    1
    41    20    21   ar
    42    20    52    1
    43    21    22    1
    44    21    23   ar
    45    23    24   ar
    46    23    53    1
    47    24    54    1
    48    25    26    2
    49    25    27    2
    50    25    28    1
    51    28    33   ar
    52    28    29   ar
    53    29    30   ar
    54    29    55    1
    55    30    31   ar
    56    30    56    1
    57    31    32   ar
    58    31    57    1
    59    32    33   ar
    60    32    58    1
    61    33    59    1
