@<TRIPOS>MOLECULE
ZINC000237809524
 39 40 0 0 0
SMALL
GASTEIGER

@<TRIPOS>ATOM
      1 C          -0.4032    1.1470    0.2059 C.3     1  UNL1       -0.0379
      2 C          -0.1794   -0.3427    0.2507 C.ar    1  UNL1       -0.0241
      3 C          -0.2889   -1.0930   -0.9048 C.ar    1  UNL1       -0.0565
      4 C          -0.0836   -2.4596   -0.8637 C.ar    1  UNL1       -0.0498
      5 C           0.2315   -3.0754    0.3329 C.ar    1  UNL1        0.0567
      6 C           0.4548   -4.5651    0.3778 C.3     1  UNL1        0.4175
      7 F           0.2895   -5.1003   -0.9042 F       1  UNL1       -0.1659
      8 F           1.7524   -4.8288    0.8294 F       1  UNL1       -0.1659
      9 F          -0.4702   -5.1492    1.2498 F       1  UNL1       -0.1659
     10 C           0.3423   -2.3246    1.4885 C.ar    1  UNL1       -0.0235
     11 C           0.1409   -0.9579    1.4467 C.ar    1  UNL1        0.1089
     12 S           0.2821   -0.0011    2.9195 S.O2    1  UNL1        0.0615
     13 O          -0.8772    0.8185    2.9783 O.2     1  UNL1       -0.1528
     14 O           0.6474   -0.9060    3.9524 O.2     1  UNL1       -0.1528
     15 N           1.5684    1.0222    2.7178 N.3     1  UNL1       -0.1685
     16 C           1.4869    2.4312    2.2918 C.3     1  UNL1        0.0211
     17 C           2.7782    3.0870    2.8414 C.3     1  UNL1       -0.0369
     18 C           3.8120    1.9455    2.6526 C.3     1  UNL1       -0.0295
     19 C           2.9803    0.6779    2.9401 C.3     1  UNL1        0.0716
     20 H           3.1318    0.3613    3.9721 H       1  UNL1        0.0533
     21 C           3.3949   -0.4440    1.9859 C.3     1  UNL1       -0.0177
     22 N           4.7826   -0.8367    2.2653 N.4     1  UNL1        0.2197
     23 H           5.3798   -0.0254    2.2078 H       1  UNL1        0.1995
     24 H           4.8402   -1.2318    3.1919 H       1  UNL1        0.1995
     25 H           5.0809   -1.5226    1.5880 H       1  UNL1        0.1995
     26 H           0.5513    1.6536    0.0632 H       1  UNL1        0.0278
     27 H          -1.0705    1.3894   -0.6212 H       1  UNL1        0.0278
     28 H          -0.8523    1.4753    1.1432 H       1  UNL1        0.0278
     29 H          -0.5351   -0.6118   -1.8398 H       1  UNL1        0.0621
     30 H          -0.1698   -3.0460   -1.7665 H       1  UNL1        0.0623
     31 H           0.5889   -2.8058    2.4235 H       1  UNL1        0.0643
     32 H           1.4609    2.4977    1.2041 H       1  UNL1        0.0444
     33 H           0.6063    2.9075    2.7229 H       1  UNL1        0.0444
     34 H           3.0520    3.9632    2.2537 H       1  UNL1        0.0279
     35 H           2.6679    3.3440    3.8949 H       1  UNL1        0.0279
     36 H           4.1947    1.9368    1.6321 H       1  UNL1        0.0283
     37 H           4.6267    2.0405    3.3704 H       1  UNL1        0.0283
     38 H           2.7387   -1.3027    2.1278 H       1  UNL1        0.0829
     39 H           3.3167   -0.0931    0.9569 H       1  UNL1        0.0829
@<TRIPOS>UNITY_ATOM_ATTR
22 1
charge 1
@<TRIPOS>BOND
     1     1     2    1
     2     1    26    1
     3     1    27    1
     4     1    28    1
     5     2    11   ar
     6     2     3   ar
     7     3     4   ar
     8     3    29    1
     9     4     5   ar
    10     4    30    1
    11     5     6    1
    12     5    10   ar
    13     6     7    1
    14     6     8    1
    15     6     9    1
    16    10    11   ar
    17    10    31    1
    18    11    12    1
    19    12    13    2
    20    12    14    2
    21    12    15    1
    22    15    19    1
    23    15    16    1
    24    16    17    1
    25    16    32    1
    26    16    33    1
    27    17    18    1
    28    17    34    1
    29    17    35    1
    30    18    19    1
    31    18    36    1
    32    18    37    1
    33    19    20    1
    34    19    21    1
    35    21    22    1
    36    21    38    1
    37    21    39    1
    38    22    23    1
    39    22    24    1
    40    22    25    1
