@<TRIPOS>MOLECULE
ZINC000065385089
 43 44 0 0 0
SMALL
GASTEIGER

@<TRIPOS>ATOM
      1 C           0.5520   -0.0744    1.3966 C.3     1  UNL1       -0.0120
      2 N           0.0145   -0.0321    0.0301 N.3     1  UNL1       -0.2940
      3 C           0.9365   -0.6713   -0.9183 C.3     1  UNL1       -0.0120
      4 C          -1.3165   -0.6508   -0.0315 C.3     1  UNL1        0.1124
      5 H          -1.2304   -1.7187    0.1692 H       1  UNL1        0.0609
      6 C          -1.9039   -0.4433   -1.4037 C.2     1  UNL1        0.2348
      7 O          -1.4761    0.4372   -2.1197 O.2     1  UNL1       -0.2737
      8 N          -2.9046   -1.2362   -1.8353 N.am    1  UNL1       -0.3122
      9 C          -3.4756   -1.0346   -3.1693 C.3     1  UNL1        0.0275
     10 C          -4.5865   -2.0590   -3.4087 C.3     1  UNL1        0.0317
     11 N          -5.1575   -1.8573   -4.7427 N.am    1  UNL1       -0.2827
     12 C          -6.2883   -0.9726   -5.0607 C.3     1  UNL1        0.0318
     13 C          -6.4699   -1.1376   -6.5820 C.3     1  UNL1        0.0289
     14 N          -5.4221   -2.0978   -6.9598 N.am    1  UNL1       -0.2977
     15 C          -4.7289   -2.4450   -5.8674 C.2     1  UNL1        0.3023
     16 O          -3.8003   -3.2295   -5.8931 O.2     1  UNL1       -0.2526
     17 C          -2.2135   -0.0165    1.0000 C.ar    1  UNL1       -0.0188
     18 C          -2.2631    1.3597    1.1199 C.ar    1  UNL1       -0.0564
     19 C          -3.0857    1.9430    2.0659 C.ar    1  UNL1       -0.0587
     20 C          -3.8590    1.1508    2.8926 C.ar    1  UNL1       -0.0264
     21 C          -3.8105   -0.2280    2.7731 C.ar    1  UNL1        0.1237
     22 F          -4.5662   -1.0036    3.5809 F       1  UNL1       -0.2055
     23 C          -2.9905   -0.8108    1.8221 C.ar    1  UNL1       -0.0213
     24 H           1.5510    0.3614    1.4077 H       1  UNL1        0.0391
     25 H          -0.0995    0.4932    2.0610 H       1  UNL1        0.0391
     26 H           0.6033   -1.1093    1.7349 H       1  UNL1        0.0391
     27 H           1.0862   -1.7128   -0.6337 H       1  UNL1        0.0391
     28 H           0.5142   -0.6260   -1.9221 H       1  UNL1        0.0391
     29 H           1.8932   -0.1493   -0.9027 H       1  UNL1        0.0391
     30 H          -3.2467   -1.9405   -1.2627 H       1  UNL1        0.1488
     31 H          -3.8881   -0.0281   -3.2395 H       1  UNL1        0.0477
     32 H          -2.6965   -1.1611   -3.9210 H       1  UNL1        0.0477
     33 H          -4.1740   -3.0654   -3.3385 H       1  UNL1        0.0480
     34 H          -5.3657   -1.9324   -2.6571 H       1  UNL1        0.0480
     35 H          -7.1856   -1.2932   -4.5313 H       1  UNL1        0.0480
     36 H          -6.0464    0.0612   -4.8141 H       1  UNL1        0.0480
     37 H          -7.4572   -1.5402   -6.8081 H       1  UNL1        0.0478
     38 H          -6.3180   -0.1858   -7.0910 H       1  UNL1        0.0478
     39 H          -5.2565   -2.4246   -7.8579 H       1  UNL1        0.1503
     40 H          -1.6587    1.9797    0.4744 H       1  UNL1        0.0621
     41 H          -3.1234    3.0184    2.1589 H       1  UNL1        0.0619
     42 H          -4.5009    1.6067    3.6319 H       1  UNL1        0.0646
     43 H          -2.9521   -1.8860    1.7277 H       1  UNL1        0.0649
@<TRIPOS>BOND
     1     1     2    1
     2     1    24    1
     3     1    25    1
     4     1    26    1
     5     2     3    1
     6     2     4    1
     7     3    27    1
     8     3    28    1
     9     3    29    1
    10     4     5    1
    11     4     6    1
    12     4    17    1
    13     6     7    2
    14     6     8   am
    15     8     9    1
    16     8    30    1
    17     9    10    1
    18     9    31    1
    19     9    32    1
    20    10    11    1
    21    10    33    1
    22    10    34    1
    23    11    15   am
    24    11    12    1
    25    12    13    1
    26    12    35    1
    27    12    36    1
    28    13    14    1
    29    13    37    1
    30    13    38    1
    31    14    15   am
    32    14    39    1
    33    15    16    2
    34    17    23   ar
    35    17    18   ar
    36    18    19   ar
    37    18    40    1
    38    19    20   ar
    39    19    41    1
    40    20    21   ar
    41    20    42    1
    42    21    22    1
    43    21    23   ar
    44    23    43    1
