@<TRIPOS>MOLECULE
ZINC000018079442
 62 64 0 0 0
SMALL
GASTEIGER

@<TRIPOS>ATOM
      1 C          -0.0187    1.5258    0.0104 C.3     1  UNL1       -0.0507
      2 C           0.0021   -0.0041    0.0020 C.3     1  UNL1        0.0177
      3 N           0.7106   -0.4894    1.1889 N.3     1  UNL1       -0.1771
      4 C          -0.0062   -0.6460    2.4569 C.3     1  UNL1        0.0177
      5 C          -0.6935   -2.0126    2.4888 C.3     1  UNL1       -0.0507
      6 S           2.3218   -0.8609    1.0971 S.O2    1  UNL1        0.0608
      7 O           2.5823   -1.7795    2.1496 O.2     1  UNL1       -0.1528
      8 O           2.5905   -1.1471   -0.2686 O.2     1  UNL1       -0.1528
      9 C           3.2182    0.6060    1.4837 C.ar    1  UNL1        0.1055
     10 C           3.5687    1.4871    0.4779 C.ar    1  UNL1       -0.0351
     11 C           4.2720    2.6379    0.7812 C.ar    1  UNL1       -0.0567
     12 C           4.6242    2.9079    2.0903 C.ar    1  UNL1       -0.0468
     13 C           5.3913    4.1622    2.4209 C.3     1  UNL1       -0.0194
     14 C           4.4092    5.2965    2.7205 C.3     1  UNL1        0.0279
     15 C           5.1763    6.5509    3.0510 C.2     1  UNL1        0.2140
     16 O           6.3890    6.5388    3.0474 O.2     1  UNL1       -0.2758
     17 N           4.5146    7.6861    3.3507 N.am    1  UNL1       -0.3045
     18 C           5.2603    8.9055    3.6721 C.3     1  UNL1        0.0736
     19 C           4.4073   10.1105    3.3692 C.ar    1  UNL1       -0.0228
     20 C           3.0590   10.0970    3.6736 C.ar    1  UNL1       -0.0565
     21 C           2.2766   11.2022    3.3958 C.ar    1  UNL1       -0.0614
     22 C           2.8426   12.3211    2.8140 C.ar    1  UNL1       -0.0617
     23 C           4.1912   12.3350    2.5104 C.ar    1  UNL1       -0.0614
     24 C           4.9744   11.2313    2.7921 C.ar    1  UNL1       -0.0565
     25 C           5.6231    8.9017    5.1347 C.ar    1  UNL1       -0.0228
     26 C           4.7147    8.4444    6.0710 C.ar    1  UNL1       -0.0565
     27 C           5.0475    8.4409    7.4127 C.ar    1  UNL1       -0.0614
     28 C           6.2888    8.8943    7.8181 C.ar    1  UNL1       -0.0617
     29 C           7.1975    9.3508    6.8817 C.ar    1  UNL1       -0.0614
     30 C           6.8663    9.3503    5.5396 C.ar    1  UNL1       -0.0565
     31 C           4.2724    2.0275    3.0963 C.ar    1  UNL1       -0.0567
     32 C           3.5659    0.8785    2.7936 C.ar    1  UNL1       -0.0351
     33 H           1.0039    1.9031    0.0027 H       1  UNL1        0.0243
     34 H          -0.5459    1.8868   -0.8726 H       1  UNL1        0.0243
     35 H          -0.5289    1.8773    0.9072 H       1  UNL1        0.0243
     36 H          -1.0205   -0.3814    0.0098 H       1  UNL1        0.0441
     37 H           0.5123   -0.3556   -0.8948 H       1  UNL1        0.0441
     38 H           0.6997   -0.5749    3.2845 H       1  UNL1        0.0441
     39 H          -0.7557    0.1399    2.5501 H       1  UNL1        0.0441
     40 H           0.0560   -2.7985    2.3957 H       1  UNL1        0.0243
     41 H          -1.2268   -2.1291    3.4323 H       1  UNL1        0.0243
     42 H          -1.3993   -2.0837    1.6613 H       1  UNL1        0.0243
     43 H           3.2935    1.2761   -0.5449 H       1  UNL1        0.0637
     44 H           4.5465    3.3259   -0.0048 H       1  UNL1        0.0621
     45 H           6.0188    3.9848    3.2943 H       1  UNL1        0.0318
     46 H           6.0182    4.4388    1.5732 H       1  UNL1        0.0318
     47 H           3.7816    5.4739    1.8471 H       1  UNL1        0.0361
     48 H           3.7823    5.0200    3.5682 H       1  UNL1        0.0361
     49 H           3.5446    7.6958    3.3536 H       1  UNL1        0.1496
     50 H           6.1696    8.9440    3.0723 H       1  UNL1        0.0599
     51 H           2.6167    9.2228    4.1282 H       1  UNL1        0.0621
     52 H           1.2230   11.1914    3.6330 H       1  UNL1        0.0618
     53 H           2.2312   13.1844    2.5963 H       1  UNL1        0.0618
     54 H           4.6333   13.2090    2.0555 H       1  UNL1        0.0618
     55 H           6.0280   11.2421    2.5550 H       1  UNL1        0.0621
     56 H           3.7448    8.0901    5.7542 H       1  UNL1        0.0621
     57 H           4.3375    8.0842    8.1442 H       1  UNL1        0.0618
     58 H           6.5485    8.8923    8.8664 H       1  UNL1        0.0618
     59 H           8.1672    9.7054    7.1985 H       1  UNL1        0.0618
     60 H           7.5763    9.7070    4.8081 H       1  UNL1        0.0621
     61 H           4.5473    2.2386    4.1192 H       1  UNL1        0.0621
     62 H           3.2910    0.1907    3.5795 H       1  UNL1        0.0637
@<TRIPOS>BOND
     1     1     2    1
     2     1    33    1
     3     1    34    1
     4     1    35    1
     5     2     3    1
     6     2    36    1
     7     2    37    1
     8     3     4    1
     9     6     3    1
    10     4     5    1
    11     4    38    1
    12     4    39    1
    13     5    40    1
    14     5    41    1
    15     5    42    1
    16     6     7    2
    17     6     8    2
    18     6     9    1
    19     9    32   ar
    20     9    10   ar
    21    10    11   ar
    22    10    43    1
    23    11    12   ar
    24    11    44    1
    25    12    13    1
    26    12    31   ar
    27    13    14    1
    28    13    45    1
    29    13    46    1
    30    14    15    1
    31    14    47    1
    32    14    48    1
    33    15    16    2
    34    15    17   am
    35    17    18    1
    36    17    49    1
    37    18    19    1
    38    18    25    1
    39    18    50    1
    40    19    24   ar
    41    19    20   ar
    42    20    21   ar
    43    20    51    1
    44    21    22   ar
    45    21    52    1
    46    22    23   ar
    47    22    53    1
    48    23    24   ar
    49    23    54    1
    50    24    55    1
    51    25    30   ar
    52    25    26   ar
    53    26    27   ar
    54    26    56    1
    55    27    28   ar
    56    27    57    1
    57    28    29   ar
    58    28    58    1
    59    29    30   ar
    60    29    59    1
    61    30    60    1
    62    31    32   ar
    63    31    61    1
    64    32    62    1
