@<TRIPOS>MOLECULE
ZINC000012758371
 55 57 0 0 0
SMALL
GASTEIGER

@<TRIPOS>ATOM
      1 O           0.0021   -0.0041    0.0020 O.2     1  UNL1       -0.2528
      2 C          -0.0144    1.2117    0.0087 C.2     1  UNL1        0.3002
      3 N           1.1435    1.9014    0.0014 N.am    1  UNL1       -0.2953
      4 C           2.4220    1.1862   -0.0147 C.3     1  UNL1        0.0383
      5 C           3.5540    2.1810   -0.0202 C.ar    1  UNL1       -0.0302
      6 C           4.0580    2.6480   -1.2197 C.ar    1  UNL1       -0.0565
      7 C           5.0963    3.5605   -1.2247 C.ar    1  UNL1       -0.0498
      8 C           5.6304    4.0063   -0.0302 C.ar    1  UNL1        0.0548
      9 C           6.7627    5.0007   -0.0357 C.3     1  UNL1        0.4174
     10 F           6.2429    6.2995   -0.0182 F       1  UNL1       -0.1659
     11 F           7.5623    4.8032    1.0952 F       1  UNL1       -0.1659
     12 F           7.5342    4.8227   -1.1891 F       1  UNL1       -0.1659
     13 C           5.1255    3.5404    1.1693 C.ar    1  UNL1       -0.0498
     14 C           4.0846    2.6308    1.1744 C.ar    1  UNL1       -0.0565
     15 N          -1.1906    1.8696    0.0179 N.am    1  UNL1       -0.2953
     16 C          -2.4493    1.1200    0.0198 C.3     1  UNL1        0.0383
     17 C          -3.6079    2.0836    0.0305 C.ar    1  UNL1       -0.0302
     18 C          -4.1300    2.5234    1.2325 C.ar    1  UNL1       -0.0552
     19 C          -5.1927    3.4073    1.2424 C.ar    1  UNL1       -0.0350
     20 C          -5.7331    3.8518    0.0502 C.ar    1  UNL1        0.1055
     21 S          -7.0882    4.9780    0.0627 S.O2    1  UNL1        0.0609
     22 O          -7.7540    4.8185   -1.1824 O.2     1  UNL1       -0.1528
     23 O          -7.7355    4.8130    1.3170 O.2     1  UNL1       -0.1528
     24 N          -6.4541    6.5078    0.0614 N.3     1  UNL1       -0.1766
     25 C          -6.1525    7.1942    1.3250 C.3     1  UNL1        0.0205
     26 C          -4.6945    7.6634    1.2954 C.3     1  UNL1       -0.0385
     27 C          -4.4625    8.5161    0.0459 C.3     1  UNL1       -0.0506
     28 C          -4.7242    7.6736   -1.2046 C.3     1  UNL1       -0.0385
     29 C          -6.1769    7.2021   -1.2034 C.3     1  UNL1        0.0205
     30 C          -5.2102    3.4130   -1.1519 C.ar    1  UNL1       -0.0350
     31 C          -4.1450    2.5320   -1.1617 C.ar    1  UNL1       -0.0552
     32 H           1.1303    2.8713    0.0067 H       1  UNL1        0.1506
     33 H           2.4967    0.5556    0.8712 H       1  UNL1        0.0512
     34 H           2.4797    0.5652   -0.9086 H       1  UNL1        0.0512
     35 H           3.6407    2.2996   -2.1529 H       1  UNL1        0.0621
     36 H           5.4905    3.9247   -2.1619 H       1  UNL1        0.0623
     37 H           5.5425    3.8891    2.1026 H       1  UNL1        0.0623
     38 H           3.6901    2.2668    2.1116 H       1  UNL1        0.0621
     39 H          -1.2038    2.8395    0.0232 H       1  UNL1        0.1506
     40 H          -2.5027    0.4974   -0.8734 H       1  UNL1        0.0512
     41 H          -2.4943    0.4877    0.9065 H       1  UNL1        0.0512
     42 H          -3.7077    2.1762    2.1640 H       1  UNL1        0.0621
     43 H          -5.6011    3.7504    2.1815 H       1  UNL1        0.0637
     44 H          -6.8111    8.0551    1.4394 H       1  UNL1        0.0444
     45 H          -6.2982    6.5067    2.1582 H       1  UNL1        0.0444
     46 H          -4.4853    8.2572    2.1851 H       1  UNL1        0.0278
     47 H          -4.0338    6.7967    1.2722 H       1  UNL1        0.0278
     48 H          -5.1407    9.3693    0.0575 H       1  UNL1        0.0266
     49 H          -3.4321    8.8716    0.0351 H       1  UNL1        0.0266
     50 H          -4.5362    8.2747   -2.0942 H       1  UNL1        0.0278
     51 H          -4.0633    6.8068   -1.2042 H       1  UNL1        0.0278
     52 H          -6.3409    6.5216   -2.0389 H       1  UNL1        0.0444
     53 H          -6.8403    8.0622   -1.2943 H       1  UNL1        0.0444
     54 H          -5.6322    3.7605   -2.0833 H       1  UNL1        0.0637
     55 H          -3.7364    2.1892   -2.1008 H       1  UNL1        0.0621
@<TRIPOS>BOND
     1     1     2    2
     2     2     3   am
     3     2    15   am
     4     3     4    1
     5     3    32    1
     6     4     5    1
     7     4    33    1
     8     4    34    1
     9     5    14   ar
    10     5     6   ar
    11     6     7   ar
    12     6    35    1
    13     7     8   ar
    14     7    36    1
    15     8     9    1
    16     8    13   ar
    17     9    10    1
    18     9    11    1
    19     9    12    1
    20    13    14   ar
    21    13    37    1
    22    14    38    1
    23    15    16    1
    24    15    39    1
    25    16    17    1
    26    16    40    1
    27    16    41    1
    28    17    31   ar
    29    17    18   ar
    30    18    19   ar
    31    18    42    1
    32    19    20   ar
    33    19    43    1
    34    20    21    1
    35    20    30   ar
    36    21    22    2
    37    21    23    2
    38    21    24    1
    39    24    29    1
    40    24    25    1
    41    25    26    1
    42    25    44    1
    43    25    45    1
    44    26    27    1
    45    26    46    1
    46    26    47    1
    47    27    28    1
    48    27    48    1
    49    27    49    1
    50    28    29    1
    51    28    50    1
    52    28    51    1
    53    29    52    1
    54    29    53    1
    55    30    31   ar
    56    30    54    1
    57    31    55    1
