@<TRIPOS>MOLECULE
ZINC000013585478
 65 68 0 0 0
SMALL
GASTEIGER

@<TRIPOS>ATOM
      1 C          -1.5375  -10.9065    0.0459 C.3     1  UNL1       -0.0397
      2 C          -0.6800   -9.7011    0.3333 C.ar    1  UNL1       -0.0503
      3 C           0.6142   -9.6427   -0.1489 C.ar    1  UNL1       -0.0570
      4 C           1.4008   -8.5369    0.1147 C.ar    1  UNL1       -0.0348
      5 C           0.8931   -7.4894    0.8602 C.ar    1  UNL1        0.1087
      6 S           1.8959   -6.0802    1.1967 S.O2    1  UNL1        0.0750
      7 O           1.3636   -5.4799    2.3696 O.2     1  UNL1       -0.1498
      8 O           3.2451   -6.5128    1.0888 O.2     1  UNL1       -0.1498
      9 N           1.6514   -4.9995   -0.0340 N.pl3   1  UNL1       -0.1987
     10 C           0.6697   -3.9231    0.1206 C.3     1  UNL1        0.0600
     11 C           1.3649   -2.6738    0.5973 C.ar    1  UNL1       -0.0284
     12 C           1.5046   -2.4346    1.9517 C.ar    1  UNL1       -0.0570
     13 C           2.1422   -1.2887    2.3890 C.ar    1  UNL1       -0.0615
     14 C           2.6405   -0.3823    1.4720 C.ar    1  UNL1       -0.0617
     15 C           2.5016   -0.6219    0.1176 C.ar    1  UNL1       -0.0615
     16 C           1.8678   -1.7699   -0.3197 C.ar    1  UNL1       -0.0570
     17 C           2.3826   -5.1143   -1.2216 C.ar    1  UNL1        0.0518
     18 C           1.7246   -5.3391   -2.4235 C.ar    1  UNL1       -0.0356
     19 C           2.4470   -5.4519   -3.5952 C.ar    1  UNL1       -0.0181
     20 C           3.8294   -5.3411   -3.5715 C.ar    1  UNL1        0.1213
     21 O           4.5400   -5.4528   -4.7257 O.3     1  UNL1       -0.4828
     22 C           5.9602   -5.3284   -4.6278 C.3     1  UNL1        0.1651
     23 C           6.5732   -5.4785   -5.9963 C.2     1  UNL1        0.2507
     24 O           5.8637   -5.6730   -6.9605 O.2     1  UNL1       -0.2721
     25 N           7.9098   -5.3968   -6.1487 N.am    1  UNL1       -0.3100
     26 C           8.5057   -5.5428   -7.4790 C.3     1  UNL1        0.0380
     27 C          10.0263   -5.4096   -7.3742 C.3     1  UNL1        0.0742
     28 H          10.2820   -4.4740   -6.8767 H       1  UNL1        0.0611
     29 C          10.6533   -5.4412   -8.7846 C.3     1  UNL1       -0.0231
     30 C          11.9381   -6.2831   -8.5553 C.3     1  UNL1       -0.0271
     31 C          11.4490   -7.2769   -7.4718 C.3     1  UNL1        0.0482
     32 O          10.5611   -6.5144   -6.6359 O.3     1  UNL1       -0.3750
     33 C           4.4874   -5.1162   -2.3714 C.ar    1  UNL1       -0.0181
     34 C           3.7662   -4.9979   -1.1996 C.ar    1  UNL1       -0.0356
     35 C          -0.4016   -7.5472    1.3412 C.ar    1  UNL1       -0.0348
     36 C          -1.1895   -8.6513    1.0744 C.ar    1  UNL1       -0.0570
     37 H          -2.0812  -10.7518   -0.8861 H       1  UNL1        0.0278
     38 H          -0.9045  -11.7893   -0.0450 H       1  UNL1        0.0278
     39 H          -2.2469  -11.0504    0.8608 H       1  UNL1        0.0278
     40 H           1.0110  -10.4611   -0.7314 H       1  UNL1        0.0621
     41 H           2.4122   -8.4916   -0.2614 H       1  UNL1        0.0637
     42 H           0.1900   -3.7284   -0.8386 H       1  UNL1        0.0532
     43 H          -0.0837   -4.2205    0.8500 H       1  UNL1        0.0532
     44 H           1.1153   -3.1428    2.6681 H       1  UNL1        0.0621
     45 H           2.2507   -1.1015    3.4471 H       1  UNL1        0.0618
     46 H           3.1381    0.5133    1.8136 H       1  UNL1        0.0618
     47 H           2.8906    0.0864   -0.5988 H       1  UNL1        0.0618
     48 H           1.7592   -1.9572   -1.3778 H       1  UNL1        0.0621
     49 H           0.6483   -5.4261   -2.4421 H       1  UNL1        0.0638
     50 H           1.9354   -5.6267   -4.5301 H       1  UNL1        0.0655
     51 H           6.2120   -4.3484   -4.2225 H       1  UNL1        0.0795
     52 H           6.3484   -6.1048   -3.9686 H       1  UNL1        0.0795
     53 H           8.4773   -5.2413   -5.3775 H       1  UNL1        0.1489
     54 H           8.2539   -6.5228   -7.8843 H       1  UNL1        0.0487
     55 H           8.1175   -4.7663   -8.1382 H       1  UNL1        0.0487
     56 H           9.9881   -5.9338   -9.4938 H       1  UNL1        0.0291
     57 H          10.9037   -4.4349   -9.1204 H       1  UNL1        0.0291
     58 H          12.2320   -6.8069   -9.4649 H       1  UNL1        0.0288
     59 H          12.7524   -5.6629   -8.1807 H       1  UNL1        0.0288
     60 H          10.9150   -8.1074   -7.9336 H       1  UNL1        0.0560
     61 H          12.2926   -7.6460   -6.8886 H       1  UNL1        0.0560
     62 H           5.5638   -5.0301   -2.3539 H       1  UNL1        0.0655
     63 H           4.2787   -4.8228   -0.2652 H       1  UNL1        0.0638
     64 H          -0.7984   -6.7286    1.9233 H       1  UNL1        0.0637
     65 H          -2.2010   -8.6964    1.4502 H       1  UNL1        0.0621
@<TRIPOS>BOND
     1     1     2    1
     2     1    37    1
     3     1    38    1
     4     1    39    1
     5     2    36   ar
     6     2     3   ar
     7     3     4   ar
     8     3    40    1
     9     4     5   ar
    10     4    41    1
    11     5     6    1
    12     5    35   ar
    13     6     7    2
    14     6     8    2
    15     6     9    1
    16     9    10    1
    17     9    17    1
    18    10    11    1
    19    10    42    1
    20    10    43    1
    21    11    16   ar
    22    11    12   ar
    23    12    13   ar
    24    12    44    1
    25    13    14   ar
    26    13    45    1
    27    14    15   ar
    28    14    46    1
    29    15    16   ar
    30    15    47    1
    31    16    48    1
    32    17    34   ar
    33    17    18   ar
    34    18    19   ar
    35    18    49    1
    36    19    20   ar
    37    19    50    1
    38    20    21    1
    39    20    33   ar
    40    21    22    1
    41    22    23    1
    42    22    51    1
    43    22    52    1
    44    23    24    2
    45    23    25   am
    46    25    26    1
    47    25    53    1
    48    26    27    1
    49    26    54    1
    50    26    55    1
    51    27    28    1
    52    27    32    1
    53    27    29    1
    54    29    30    1
    55    29    56    1
    56    29    57    1
    57    30    31    1
    58    30    58    1
    59    30    59    1
    60    31    32    1
    61    31    60    1
    62    31    61    1
    63    33    34   ar
    64    33    62    1
    65    34    63    1
    66    35    36   ar
    67    35    64    1
    68    36    65    1
