@<TRIPOS>MOLECULE
ZINC000013831714
 51 54 0 0 0
SMALL
GASTEIGER

@<TRIPOS>ATOM
      1 O           0.0021   -0.0041    0.0020 O.2     1  UNL1       -0.1528
      2 S          -0.0172    1.4168    0.0098 S.O2    1  UNL1        0.0609
      3 O           1.1617    2.2101    0.0028 O.2     1  UNL1       -0.1528
      4 C          -0.9567    1.9094   -1.3970 C.ar    1  UNL1        0.1055
      5 C          -1.8848    1.0442   -1.9458 C.ar    1  UNL1       -0.0348
      6 C          -2.6219    1.4307   -3.0496 C.ar    1  UNL1       -0.0483
      7 C          -2.4313    2.6825   -3.6042 C.ar    1  UNL1        0.0549
      8 C          -3.2345    3.1036   -4.8078 C.3     1  UNL1        0.4174
      9 F          -4.4138    3.7273   -4.3864 F       1  UNL1       -0.1659
     10 F          -2.4843    3.9973   -5.5796 F       1  UNL1       -0.1659
     11 F          -3.5510    1.9771   -5.5746 F       1  UNL1       -0.1659
     12 C          -1.5042    3.5481   -3.0546 C.ar    1  UNL1       -0.0483
     13 C          -0.7699    3.1631   -1.9485 C.ar    1  UNL1       -0.0348
     14 N          -0.8748    1.8654    1.3536 N.3     1  UNL1       -0.1740
     15 C          -0.6796    3.1911    1.9573 C.3     1  UNL1        0.0349
     16 C          -2.0388    3.8966    2.0404 C.3     1  UNL1        0.0349
     17 N          -3.0091    2.9765    2.6503 N.3     1  UNL1       -0.1740
     18 S          -3.8674    3.4255    3.9934 S.O2    1  UNL1        0.0610
     19 O          -4.2585    2.2224    4.6404 O.2     1  UNL1       -0.1528
     20 O          -3.1076    4.4411    4.6341 O.2     1  UNL1       -0.1528
     21 C          -5.3506    4.1933    3.4318 C.ar    1  UNL1        0.1092
     22 C          -5.3783    5.5561    3.2036 C.ar    1  UNL1       -0.0317
     23 C          -6.5407    6.1625    2.7651 C.ar    1  UNL1       -0.0144
     24 C          -7.6822    5.4045    2.5528 C.ar    1  UNL1        0.1622
     25 O          -8.8215    6.0167    2.1290 O.3     1  UNL1       -0.4849
     26 C          -9.8360    5.1737    1.5720 C.3     1  UNL1        0.1237
     27 C         -10.0127    3.9601    2.4946 C.3     1  UNL1        0.1237
     28 O          -8.7609    3.2697    2.5720 O.3     1  UNL1       -0.4849
     29 C          -7.6532    4.0332    2.7788 C.ar    1  UNL1        0.1639
     30 C          -6.4830    3.4306    3.2150 C.ar    1  UNL1        0.0101
     31 C          -3.2042    1.6508    2.0465 C.3     1  UNL1        0.0349
     32 C          -1.8490    0.9474    1.9601 C.3     1  UNL1        0.0349
     33 H          -2.0336    0.0662   -1.5125 H       1  UNL1        0.0637
     34 H          -3.3464    0.7545   -3.4788 H       1  UNL1        0.0624
     35 H          -1.3556    4.5263   -3.4877 H       1  UNL1        0.0624
     36 H          -0.0456    3.8394   -1.5191 H       1  UNL1        0.0637
     37 H          -0.2636    3.0794    2.9586 H       1  UNL1        0.0457
     38 H           0.0000    3.7780    1.3395 H       1  UNL1        0.0457
     39 H          -1.9489    4.7928    2.6543 H       1  UNL1        0.0457
     40 H          -2.3719    4.1682    1.0387 H       1  UNL1        0.0457
     41 H          -4.4903    6.1484    3.3683 H       1  UNL1        0.0638
     42 H          -6.5598    7.2277    2.5881 H       1  UNL1        0.0656
     43 H         -10.7746    5.7237    1.5043 H       1  UNL1        0.0731
     44 H          -9.5325    4.8399    0.5798 H       1  UNL1        0.0731
     45 H         -10.3103    4.2943    3.4886 H       1  UNL1        0.0731
     46 H         -10.7743    3.2958    2.0863 H       1  UNL1        0.0731
     47 H          -6.4574    2.3651    3.3894 H       1  UNL1        0.0675
     48 H          -3.8838    1.0639    2.6644 H       1  UNL1        0.0457
     49 H          -3.6202    1.7625    1.0453 H       1  UNL1        0.0457
     50 H          -1.9405    0.0514    1.3461 H       1  UNL1        0.0457
     51 H          -1.5136    0.6754    2.9609 H       1  UNL1        0.0457
@<TRIPOS>BOND
     1     1     2    2
     2     2     3    2
     3     2     4    1
     4     2    14    1
     5     4    13   ar
     6     4     5   ar
     7     5     6   ar
     8     5    33    1
     9     6     7   ar
    10     6    34    1
    11     7     8    1
    12     7    12   ar
    13     8     9    1
    14     8    10    1
    15     8    11    1
    16    12    13   ar
    17    12    35    1
    18    13    36    1
    19    14    32    1
    20    14    15    1
    21    15    16    1
    22    15    37    1
    23    15    38    1
    24    16    17    1
    25    16    39    1
    26    16    40    1
    27    18    17    1
    28    17    31    1
    29    18    19    2
    30    18    20    2
    31    18    21    1
    32    21    30   ar
    33    21    22   ar
    34    22    23   ar
    35    22    41    1
    36    23    24   ar
    37    23    42    1
    38    24    29   ar
    39    24    25    1
    40    25    26    1
    41    26    27    1
    42    26    43    1
    43    26    44    1
    44    27    28    1
    45    27    45    1
    46    27    46    1
    47    28    29    1
    48    29    30   ar
    49    30    47    1
    50    31    32    1
    51    31    48    1
    52    31    49    1
    53    32    50    1
    54    32    51    1
