@<TRIPOS>MOLECULE
ZINC000001741503
 46 48 0 0 0
SMALL
GASTEIGER

@<TRIPOS>ATOM
      1 C          -0.0184    1.5028    0.0103 C.3     1  UNL1       -0.0222
      2 C           0.0021   -0.0041    0.0020 C.ar    1  UNL1        0.0435
      3 C           0.0060   -0.6989   -1.1973 C.ar    1  UNL1       -0.0194
      4 C           0.0255   -2.0843   -1.1603 C.ar    1  UNL1        0.0435
      5 C           0.0309   -2.8813   -2.4393 C.3     1  UNL1       -0.0222
      6 N           0.0397   -2.6984    0.0111 N.ar    1  UNL1       -0.2196
      7 C           0.0354   -2.0044    1.1397 C.ar    1  UNL1        0.2183
      8 N           0.0511   -2.6793    2.3480 N.pl3   1  UNL1       -0.2971
      9 C           0.0784   -4.1483    2.3839 C.3     1  UNL1        0.0293
     10 C           1.2832   -4.5957    3.2208 C.3     1  UNL1        0.0363
     11 N           1.2734   -3.8563    4.4908 N.3     1  UNL1       -0.1736
     12 S           1.2932   -4.6638    5.9365 S.O2    1  UNL1        0.0610
     13 O           0.7351   -3.7789    6.8981 O.2     1  UNL1       -0.1528
     14 O           0.7723   -5.9606    5.6789 O.2     1  UNL1       -0.1528
     15 C           2.9822   -4.8864    6.3864 C.ar    1  UNL1        0.1060
     16 C           3.6641   -6.0158    5.9742 C.ar    1  UNL1       -0.0353
     17 C           4.9894   -6.1905    6.3272 C.ar    1  UNL1       -0.0594
     18 C           5.6325   -5.2355    7.0919 C.ar    1  UNL1       -0.0500
     19 C           4.9507   -4.1054    7.5034 C.ar    1  UNL1        0.0567
     20 C           5.6518   -3.0644    8.3376 C.3     1  UNL1        0.4175
     21 F           6.9741   -3.4612    8.5639 F       1  UNL1       -0.1659
     22 F           5.6417   -1.8401    7.6607 F       1  UNL1       -0.1659
     23 F           4.9905   -2.9255    9.5625 F       1  UNL1       -0.1659
     24 C           3.6271   -3.9287    7.1469 C.ar    1  UNL1       -0.0237
     25 C           1.2461   -2.3873    4.4550 C.3     1  UNL1        0.0363
     26 C           0.0469   -1.9398    3.6180 C.3     1  UNL1        0.0293
     27 N           0.0220   -0.6795    1.1391 N.ar    1  UNL1       -0.2196
     28 H           1.0042    1.8801    0.0026 H       1  UNL1        0.0293
     29 H          -0.5455    1.8639   -0.8728 H       1  UNL1        0.0293
     30 H          -0.5286    1.8543    0.9071 H       1  UNL1        0.0293
     31 H          -0.0062   -0.1722   -2.1401 H       1  UNL1        0.0653
     32 H           1.0598   -3.0591   -2.7522 H       1  UNL1        0.0293
     33 H          -0.4689   -3.8359   -2.2747 H       1  UNL1        0.0293
     34 H          -0.4942   -2.3254   -3.2161 H       1  UNL1        0.0293
     35 H          -0.8404   -4.5203    2.8372 H       1  UNL1        0.0478
     36 H           0.1726   -4.5373    1.3700 H       1  UNL1        0.0478
     37 H           1.2136   -5.6652    3.4196 H       1  UNL1        0.0459
     38 H           2.2046   -4.3810    2.6796 H       1  UNL1        0.0459
     39 H           3.1615   -6.7620    5.3767 H       1  UNL1        0.0637
     40 H           5.5220   -7.0733    6.0057 H       1  UNL1        0.0618
     41 H           6.6675   -5.3723    7.3682 H       1  UNL1        0.0623
     42 H           3.0945   -3.0459    7.4684 H       1  UNL1        0.0642
     43 H           1.1519   -1.9983    5.4688 H       1  UNL1        0.0459
     44 H           2.1649   -2.0153    4.0016 H       1  UNL1        0.0459
     45 H           0.1178   -0.8703    3.4199 H       1  UNL1        0.0478
     46 H          -0.8759   -2.1542    4.1570 H       1  UNL1        0.0478
@<TRIPOS>BOND
     1     1     2    1
     2     1    28    1
     3     1    29    1
     4     1    30    1
     5     2    27   ar
     6     2     3   ar
     7     3     4   ar
     8     3    31    1
     9     4     5    1
    10     4     6   ar
    11     5    32    1
    12     5    33    1
    13     5    34    1
    14     6     7   ar
    15     7     8    1
    16     7    27   ar
    17     8    26    1
    18     8     9    1
    19     9    10    1
    20     9    35    1
    21     9    36    1
    22    10    11    1
    23    10    37    1
    24    10    38    1
    25    12    11    1
    26    11    25    1
    27    12    13    2
    28    12    14    2
    29    12    15    1
    30    15    24   ar
    31    15    16   ar
    32    16    17   ar
    33    16    39    1
    34    17    18   ar
    35    17    40    1
    36    18    19   ar
    37    18    41    1
    38    19    20    1
    39    19    24   ar
    40    20    21    1
    41    20    22    1
    42    20    23    1
    43    24    42    1
    44    25    26    1
    45    25    43    1
    46    25    44    1
    47    26    45    1
    48    26    46    1
