@<TRIPOS>MOLECULE
ZINC000013656361
 42 44 0 0 0
SMALL
GASTEIGER

@<TRIPOS>ATOM
      1 C          -0.5057    0.8675   -0.3519 C.3     1  UNL1        0.0788
      2 O          -0.4022   -0.5540   -0.2487 O.3     1  UNL1       -0.4951
      3 C           0.2865   -1.0469    0.8141 C.ar    1  UNL1        0.1201
      4 C           0.8462   -0.1804    1.7418 C.ar    1  UNL1       -0.0196
      5 C           1.5454   -0.6841    2.8216 C.ar    1  UNL1       -0.0536
      6 C           1.6880   -2.0504    2.9779 C.ar    1  UNL1       -0.0293
      7 C           2.4517   -2.5971    4.1565 C.3     1  UNL1        0.0490
      8 N           1.5326   -2.8115    5.2770 N.am    1  UNL1       -0.2182
      9 C           1.2480   -1.8885    6.2028 C.2     1  UNL1        0.3110
     10 O           1.7250   -0.7707    6.2114 O.2     1  UNL1       -0.2521
     11 N           0.3748   -2.3360    7.1232 N.am    1  UNL1       -0.2632
     12 C           0.0475   -3.7240    6.7537 C.3     1  UNL1        0.2776
     13 N          -1.3826   -3.8570    6.4650 N.am    1  UNL1       -0.2796
     14 C          -1.8558   -4.9914    5.9123 C.2     1  UNL1        0.2182
     15 O          -1.1134   -5.9331    5.7307 O.2     1  UNL1       -0.2754
     16 C          -3.3075   -5.0898    5.5198 C.3     1  UNL1        0.0357
     17 C          -3.6327   -5.1550    4.0262 C.3     1  UNL1       -0.0412
     18 C          -3.7835   -6.4038    4.8972 C.3     1  UNL1       -0.0412
     19 C           0.4626   -4.6892    7.8658 C.3     1  UNL1        0.4365
     20 F          -0.3120   -4.4483    9.0056 F       1  UNL1       -0.1662
     21 F           0.2653   -6.0064    7.4377 F       1  UNL1       -0.1662
     22 F           1.8141   -4.4956    8.1710 F       1  UNL1       -0.1662
     23 C           0.8649   -3.9608    5.4992 C.2     1  UNL1        0.2745
     24 O           0.9124   -4.9751    4.8369 O.2     1  UNL1       -0.2706
     25 C           1.1308   -2.9161    2.0550 C.ar    1  UNL1       -0.0536
     26 C           0.4262   -2.4177    0.9763 C.ar    1  UNL1       -0.0196
     27 H           0.4922    1.3002   -0.4233 H       1  UNL1        0.0660
     28 H          -1.0785    1.1264   -1.2423 H       1  UNL1        0.0660
     29 H          -1.0096    1.2602    0.5313 H       1  UNL1        0.0660
     30 H           0.7356    0.8869    1.6197 H       1  UNL1        0.0654
     31 H           1.9812   -0.0099    3.5440 H       1  UNL1        0.0622
     32 H           2.9159   -3.5440    3.8811 H       1  UNL1        0.0519
     33 H           3.2236   -1.8860    4.4507 H       1  UNL1        0.0519
     34 H           0.0287   -1.8414    7.8824 H       1  UNL1        0.1530
     35 H          -1.9889   -3.1285    6.6717 H       1  UNL1        0.1515
     36 H          -4.0060   -4.5562    6.1645 H       1  UNL1        0.0394
     37 H          -4.5452   -4.6641    3.6879 H       1  UNL1        0.0273
     38 H          -2.7966   -5.1267    3.3274 H       1  UNL1        0.0273
     39 H          -3.0467   -7.1971    4.7714 H       1  UNL1        0.0273
     40 H          -4.7953   -6.7345    5.1319 H       1  UNL1        0.0273
     41 H           1.2433   -3.9830    2.1795 H       1  UNL1        0.0622
     42 H          -0.0089   -3.0943    0.2557 H       1  UNL1        0.0654
@<TRIPOS>BOND
     1     1     2    1
     2     1    27    1
     3     1    28    1
     4     1    29    1
     5     2     3    1
     6     3    26   ar
     7     3     4   ar
     8     4     5   ar
     9     4    30    1
    10     5     6   ar
    11     5    31    1
    12     6     7    1
    13     6    25   ar
    14     7     8    1
    15     7    32    1
    16     7    33    1
    17     8    23   am
    18     8     9   am
    19     9    10    2
    20     9    11   am
    21    11    12    1
    22    11    34    1
    23    12    13    1
    24    12    19    1
    25    12    23    1
    26    13    14   am
    27    13    35    1
    28    14    15    2
    29    14    16    1
    30    16    18    1
    31    16    17    1
    32    16    36    1
    33    17    18    1
    34    17    37    1
    35    17    38    1
    36    18    39    1
    37    18    40    1
    38    19    20    1
    39    19    21    1
    40    19    22    1
    41    23    24    2
    42    25    26   ar
    43    25    41    1
    44    26    42    1
