@<TRIPOS>MOLECULE
ZINC000004676562
 56 58 0 0 0
SMALL
GASTEIGER

@<TRIPOS>ATOM
      1 O           0.0021   -0.0041    0.0020 O.2     1  UNL1       -0.2743
      2 C          -0.0144    1.2086    0.0087 C.2     1  UNL1        0.2290
      3 C           1.2803    1.9798    0.0005 C.3     1  UNL1        0.0968
      4 N           2.4066    1.0431   -0.0153 N.3     1  UNL1       -0.1675
      5 C           2.8870    0.4965   -1.2868 C.3     1  UNL1        0.0250
      6 C           3.8806    1.4732   -1.9190 C.3     1  UNL1       -0.0132
      7 C           4.3747    0.9110   -3.2269 C.ar    1  UNL1       -0.0461
      8 C           5.4974    0.1048   -3.2526 C.ar    1  UNL1       -0.0585
      9 C           5.9506   -0.4110   -4.4523 C.ar    1  UNL1       -0.0615
     10 C           5.2810   -0.1209   -5.6264 C.ar    1  UNL1       -0.0617
     11 C           4.1578    0.6845   -5.6006 C.ar    1  UNL1       -0.0615
     12 C           3.7020    1.1967   -4.4002 C.ar    1  UNL1       -0.0585
     13 S           3.1367    0.6021    1.4041 S.O2    1  UNL1        0.0613
     14 O           4.4947    0.3274    1.0884 O.2     1  UNL1       -0.1528
     15 O           2.7433    1.5638    2.3734 O.2     1  UNL1       -0.1528
     16 C           2.4227   -0.9292    1.9041 C.ar    1  UNL1        0.1055
     17 C           1.3004   -0.9377    2.7111 C.ar    1  UNL1       -0.0353
     18 C           0.7402   -2.1390    3.1034 C.ar    1  UNL1       -0.0599
     19 C           1.3020   -3.3318    2.6884 C.ar    1  UNL1       -0.0616
     20 C           2.4238   -3.3234    1.8806 C.ar    1  UNL1       -0.0599
     21 C           2.9815   -2.1220    1.4848 C.ar    1  UNL1       -0.0353
     22 N          -1.1906    1.8666    0.0178 N.am    1  UNL1       -0.3114
     23 C          -2.4492    1.1169    0.0197 C.3     1  UNL1        0.0232
     24 C          -2.8163    0.7401    1.4565 C.3     1  UNL1       -0.0345
     25 C          -4.1308   -0.0428    1.4585 C.3     1  UNL1       -0.0514
     26 C          -5.2408    0.8227    0.8588 C.3     1  UNL1       -0.0529
     27 C          -4.8738    1.1995   -0.5780 C.3     1  UNL1       -0.0514
     28 C          -3.5593    1.9824   -0.5799 C.3     1  UNL1       -0.0345
     29 H           1.3211    2.6120   -0.8866 H       1  UNL1        0.0539
     30 H           1.3381    2.6024    0.8933 H       1  UNL1        0.0539
     31 H           3.3803   -0.4590   -1.1083 H       1  UNL1        0.0447
     32 H           2.0432    0.3494   -1.9610 H       1  UNL1        0.0447
     33 H           3.3872    2.4287   -2.0974 H       1  UNL1        0.0326
     34 H           4.7243    1.6203   -1.2448 H       1  UNL1        0.0326
     35 H           6.0205   -0.1218   -2.3353 H       1  UNL1        0.0620
     36 H           6.8281   -1.0402   -4.4725 H       1  UNL1        0.0618
     37 H           5.6355   -0.5233   -6.5638 H       1  UNL1        0.0618
     38 H           3.6348    0.9113   -6.5179 H       1  UNL1        0.0618
     39 H           2.8245    1.8260   -4.3801 H       1  UNL1        0.0620
     40 H           0.8614   -0.0057    3.0354 H       1  UNL1        0.0637
     41 H          -0.1362   -2.1456    3.7345 H       1  UNL1        0.0618
     42 H           0.8648   -4.2704    2.9954 H       1  UNL1        0.0618
     43 H           2.8630   -4.2554    1.5566 H       1  UNL1        0.0618
     44 H           3.8579   -2.1154    0.8537 H       1  UNL1        0.0637
     45 H          -1.2037    2.8365    0.0232 H       1  UNL1        0.1490
     46 H          -2.3335    0.2109   -0.5752 H       1  UNL1        0.0498
     47 H          -2.0255    0.1235    1.8837 H       1  UNL1        0.0283
     48 H          -2.9321    1.6460    2.0514 H       1  UNL1        0.0283
     49 H          -4.0150   -0.9488    0.8635 H       1  UNL1        0.0266
     50 H          -4.3922   -0.3113    2.4820 H       1  UNL1        0.0266
     51 H          -6.1773    0.2649    0.8602 H       1  UNL1        0.0265
     52 H          -5.3566    1.7286    1.4537 H       1  UNL1        0.0265
     53 H          -4.7580    0.2935   -1.1729 H       1  UNL1        0.0266
     54 H          -5.6646    1.8161   -1.0052 H       1  UNL1        0.0266
     55 H          -3.6751    2.8884    0.0150 H       1  UNL1        0.0283
     56 H          -3.2978    2.2509   -1.6035 H       1  UNL1        0.0283
@<TRIPOS>BOND
     1     1     2    2
     2     2     3    1
     3     2    22   am
     4     3     4    1
     5     3    29    1
     6     3    30    1
     7     4     5    1
     8    13     4    1
     9     5     6    1
    10     5    31    1
    11     5    32    1
    12     6     7    1
    13     6    33    1
    14     6    34    1
    15     7    12   ar
    16     7     8   ar
    17     8     9   ar
    18     8    35    1
    19     9    10   ar
    20     9    36    1
    21    10    11   ar
    22    10    37    1
    23    11    12   ar
    24    11    38    1
    25    12    39    1
    26    13    14    2
    27    13    15    2
    28    13    16    1
    29    16    21   ar
    30    16    17   ar
    31    17    18   ar
    32    17    40    1
    33    18    19   ar
    34    18    41    1
    35    19    20   ar
    36    19    42    1
    37    20    21   ar
    38    20    43    1
    39    21    44    1
    40    22    23    1
    41    22    45    1
    42    23    28    1
    43    23    24    1
    44    23    46    1
    45    24    25    1
    46    24    47    1
    47    24    48    1
    48    25    26    1
    49    25    49    1
    50    25    50    1
    51    26    27    1
    52    26    51    1
    53    26    52    1
    54    27    28    1
    55    27    53    1
    56    27    54    1
    57    28    55    1
    58    28    56    1
