@<TRIPOS>MOLECULE
ZINC000408767544
 58 59 0 0 0
SMALL
GASTEIGER

@<TRIPOS>ATOM
      1 C          -0.0173    1.4248    0.0099 C.3     1  UNL1        0.0364
      2 O           0.0021   -0.0041    0.0020 O.3     1  UNL1       -0.3829
      3 C           0.6518   -0.5703   -1.1379 C.3     1  UNL1        0.0487
      4 C           0.6131   -2.0967   -1.0411 C.3     1  UNL1       -0.0139
      5 C           1.3087   -2.7029   -2.2615 C.3     1  UNL1        0.0137
      6 N           1.2717   -4.1645   -2.1688 N.am    1  UNL1       -0.3141
      7 C           1.8279   -4.9157   -3.1398 C.2     1  UNL1        0.2288
      8 O           2.3592   -4.3816   -4.0903 O.2     1  UNL1       -0.2743
      9 C           1.7898   -6.4192   -3.0444 C.3     1  UNL1        0.0971
     10 N           2.4559   -6.9996   -4.2130 N.3     1  UNL1       -0.1635
     11 C           3.9101   -7.1769   -4.2144 C.3     1  UNL1        0.0460
     12 C           4.2576   -8.4830   -3.5479 C.ar    1  UNL1       -0.0317
     13 C           4.4804   -8.5254   -2.1843 C.ar    1  UNL1       -0.0573
     14 C           4.7992   -9.7236   -1.5730 C.ar    1  UNL1       -0.0615
     15 C           4.8947  -10.8794   -2.3252 C.ar    1  UNL1       -0.0617
     16 C           4.6711  -10.8372   -3.6886 C.ar    1  UNL1       -0.0615
     17 C           4.3481   -9.6398   -4.2993 C.ar    1  UNL1       -0.0573
     18 S           1.5650   -7.4555   -5.5324 S.O2    1  UNL1        0.0617
     19 O           2.3330   -8.4366   -6.2157 O.2     1  UNL1       -0.1528
     20 O           0.2444   -7.6903   -5.0632 O.2     1  UNL1       -0.1528
     21 C           1.4712   -6.0611   -6.6055 C.ar    1  UNL1        0.1092
     22 C           0.4367   -5.1547   -6.4694 C.ar    1  UNL1       -0.0317
     23 C           0.3584   -4.0590   -7.3094 C.ar    1  UNL1       -0.0145
     24 C           1.3184   -3.8677   -8.2896 C.ar    1  UNL1        0.1616
     25 O           1.2431   -2.7904   -9.1161 O.3     1  UNL1       -0.4915
     26 C           0.1467   -1.8956   -8.9175 C.3     1  UNL1        0.0790
     27 C           2.3605   -4.7803   -8.4263 C.ar    1  UNL1        0.1633
     28 O           3.3057   -4.5965   -9.3867 O.3     1  UNL1       -0.4914
     29 C           4.3457   -5.5731   -9.4687 C.3     1  UNL1        0.0790
     30 C           2.4359   -5.8730   -7.5782 C.ar    1  UNL1        0.0101
     31 H           1.0053    1.8021    0.0021 H       1  UNL1        0.0523
     32 H          -0.5445    1.7859   -0.8732 H       1  UNL1        0.0523
     33 H          -0.5275    1.7763    0.9067 H       1  UNL1        0.0523
     34 H           0.1385   -0.2506   -2.0447 H       1  UNL1        0.0560
     35 H           1.6883   -0.2344   -1.1694 H       1  UNL1        0.0560
     36 H           1.1264   -2.4164   -0.1342 H       1  UNL1        0.0302
     37 H          -0.4234   -2.4326   -1.0095 H       1  UNL1        0.0302
     38 H           0.7954   -2.3833   -3.1684 H       1  UNL1        0.0463
     39 H           2.3452   -2.3671   -2.2930 H       1  UNL1        0.0463
     40 H           0.8468   -4.5917   -1.4086 H       1  UNL1        0.1487
     41 H           2.3031   -6.7389   -2.1376 H       1  UNL1        0.0539
     42 H           0.7533   -6.7551   -3.0129 H       1  UNL1        0.0539
     43 H           4.2742   -7.1850   -5.2418 H       1  UNL1        0.0493
     44 H           4.3767   -6.3558   -3.6701 H       1  UNL1        0.0493
     45 H           4.4058   -7.6224   -1.5966 H       1  UNL1        0.0621
     46 H           4.9739   -9.7565   -0.5077 H       1  UNL1        0.0618
     47 H           5.1445  -11.8153   -1.8476 H       1  UNL1        0.0618
     48 H           4.7460  -11.7401   -4.2764 H       1  UNL1        0.0618
     49 H           4.1733   -9.6068   -5.3646 H       1  UNL1        0.0621
     50 H          -0.3124   -5.3027   -5.7057 H       1  UNL1        0.0638
     51 H          -0.4514   -3.3526   -7.2015 H       1  UNL1        0.0656
     52 H          -0.7911   -2.4345   -9.0525 H       1  UNL1        0.0660
     53 H           0.1892   -1.4876   -7.9077 H       1  UNL1        0.0660
     54 H           0.2059   -1.0824   -9.6408 H       1  UNL1        0.0660
     55 H           4.8897   -5.6047   -8.5247 H       1  UNL1        0.0660
     56 H           3.9100   -6.5518   -9.6699 H       1  UNL1        0.0660
     57 H           5.0306   -5.3077  -10.2740 H       1  UNL1        0.0660
     58 H           3.2435   -6.5825   -7.6822 H       1  UNL1        0.0675
@<TRIPOS>BOND
     1     1     2    1
     2     1    31    1
     3     1    32    1
     4     1    33    1
     5     2     3    1
     6     3     4    1
     7     3    34    1
     8     3    35    1
     9     4     5    1
    10     4    36    1
    11     4    37    1
    12     5     6    1
    13     5    38    1
    14     5    39    1
    15     6     7   am
    16     6    40    1
    17     7     8    2
    18     7     9    1
    19     9    10    1
    20     9    41    1
    21     9    42    1
    22    10    11    1
    23    18    10    1
    24    11    12    1
    25    11    43    1
    26    11    44    1
    27    12    17   ar
    28    12    13   ar
    29    13    14   ar
    30    13    45    1
    31    14    15   ar
    32    14    46    1
    33    15    16   ar
    34    15    47    1
    35    16    17   ar
    36    16    48    1
    37    17    49    1
    38    18    19    2
    39    18    20    2
    40    18    21    1
    41    21    30   ar
    42    21    22   ar
    43    22    23   ar
    44    22    50    1
    45    23    24   ar
    46    23    51    1
    47    24    25    1
    48    24    27   ar
    49    25    26    1
    50    26    52    1
    51    26    53    1
    52    26    54    1
    53    27    28    1
    54    27    30   ar
    55    28    29    1
    56    29    55    1
    57    29    56    1
    58    29    57    1
    59    30    58    1
