@<TRIPOS>MOLECULE
ZINC000158195753
 41 42 0 0 0
SMALL
GASTEIGER

@<TRIPOS>ATOM
      1 C           0.6170    1.3333    0.4192 C.3     1  UNL1       -0.0130
      2 C           0.0020   -0.0041    0.0020 C.3     1  UNL1        0.0505
      3 H          -1.0747    0.1134   -0.1198 H       1  UNL1        0.0946
      4 N           0.2708   -1.0109    1.0375 N.4     1  UNL1        0.2272
      5 H          -0.1358   -0.7117    1.9111 H       1  UNL1        0.2002
      6 H          -0.1348   -1.8929    0.7623 H       1  UNL1        0.2002
      7 H           1.2675   -1.1196    1.1502 H       1  UNL1        0.2002
      8 C           0.6094   -0.4510   -1.3028 C.2     1  UNL1        0.2634
      9 O           1.5671   -1.1951   -1.3025 O.2     1  UNL1       -0.2694
     10 N           0.0882   -0.0238   -2.4700 N.am    1  UNL1       -0.2968
     11 C          -0.9968    0.9667   -2.4874 C.3     1  UNL1        0.0154
     12 C          -0.5843    2.1341   -3.3895 C.3     1  UNL1       -0.0303
     13 C          -0.2021    1.5962   -4.7703 C.3     1  UNL1       -0.0130
     14 C           0.1717    2.7453   -5.6709 C.ar    1  UNL1       -0.0441
     15 C           1.2281    3.5712   -5.3351 C.ar    1  UNL1       -0.0578
     16 C           1.5710    4.6252   -6.1612 C.ar    1  UNL1       -0.0499
     17 C           0.8579    4.8530   -7.3232 C.ar    1  UNL1        0.0548
     18 C           1.2314    6.0023   -8.2235 C.3     1  UNL1        0.4174
     19 F           2.1735    5.5712   -9.1636 F       1  UNL1       -0.1659
     20 F           0.0898    6.4657   -8.8862 F       1  UNL1       -0.1659
     21 F           1.7777    7.0370   -7.4566 F       1  UNL1       -0.1659
     22 C          -0.1977    4.0262   -7.6597 C.ar    1  UNL1       -0.0499
     23 C          -0.5381    2.9699   -6.8356 C.ar    1  UNL1       -0.0578
     24 C           0.9889    0.6444   -4.6371 C.3     1  UNL1       -0.0303
     25 C           0.5983   -0.5353   -3.7494 C.3     1  UNL1        0.0154
     26 H           1.6929    1.2143    0.5470 H       1  UNL1        0.0289
     27 H           0.4229    2.0788   -0.3520 H       1  UNL1        0.0289
     28 H           0.1733    1.6596    1.3598 H       1  UNL1        0.0289
     29 H          -1.9051    0.5070   -2.8771 H       1  UNL1        0.0465
     30 H          -1.1746    1.3317   -1.4758 H       1  UNL1        0.0465
     31 H          -1.4175    2.8299   -3.4879 H       1  UNL1        0.0286
     32 H           0.2702    2.6489   -2.9503 H       1  UNL1        0.0286
     33 H          -1.0491    1.0601   -5.1983 H       1  UNL1        0.0350
     34 H           1.7853    3.3933   -4.4272 H       1  UNL1        0.0620
     35 H           2.3959    5.2709   -5.8985 H       1  UNL1        0.0623
     36 H          -0.7546    4.2039   -8.5678 H       1  UNL1        0.0623
     37 H          -1.3628    2.3239   -7.0984 H       1  UNL1        0.0620
     38 H           1.2753    0.2799   -5.6236 H       1  UNL1        0.0286
     39 H           1.8286    1.1732   -4.1862 H       1  UNL1        0.0286
     40 H           1.4712   -1.1634   -3.5714 H       1  UNL1        0.0465
     41 H          -0.1807   -1.1193   -4.2395 H       1  UNL1        0.0465
@<TRIPOS>UNITY_ATOM_ATTR
4 1
charge 1
@<TRIPOS>BOND
     1     1     2    1
     2     1    26    1
     3     1    27    1
     4     1    28    1
     5     2     3    1
     6     2     4    1
     7     2     8    1
     8     4     5    1
     9     4     6    1
    10     4     7    1
    11     8     9    2
    12     8    10   am
    13    10    25    1
    14    10    11    1
    15    11    12    1
    16    11    29    1
    17    11    30    1
    18    12    13    1
    19    12    31    1
    20    12    32    1
    21    13    14    1
    22    13    24    1
    23    13    33    1
    24    14    23   ar
    25    14    15   ar
    26    15    16   ar
    27    15    34    1
    28    16    17   ar
    29    16    35    1
    30    17    18    1
    31    17    22   ar
    32    18    19    1
    33    18    20    1
    34    18    21    1
    35    22    23   ar
    36    22    36    1
    37    23    37    1
    38    24    25    1
    39    24    38    1
    40    24    39    1
    41    25    40    1
    42    25    41    1
