@<TRIPOS>MOLECULE
ZINC000408609488
 49 49 0 0 0
SMALL
GASTEIGER

@<TRIPOS>ATOM
      1 C          -0.0187    1.5258    0.0104 C.3     1  UNL1       -0.0636
      2 C           0.0021   -0.0041    0.0020 C.3     1  UNL1       -0.0376
      3 C           0.7421   -0.5109    1.2415 C.3     1  UNL1        0.0202
      4 H           1.7350   -0.0630    1.2804 H       1  UNL1        0.0495
      5 C           0.8719   -2.0337    1.1708 C.3     1  UNL1       -0.0466
      6 N          -0.0083   -0.1401    2.4439 N.am    1  UNL1       -0.3099
      7 C           0.6303   -0.0111    3.6237 C.2     1  UNL1        0.2509
      8 O           1.8262   -0.2020    3.6901 O.2     1  UNL1       -0.2721
      9 C          -0.1416    0.3704    4.8606 C.3     1  UNL1        0.1651
     10 O           0.7500    0.4430    5.9750 O.3     1  UNL1       -0.4828
     11 C           0.2100    0.7776    7.1763 C.ar    1  UNL1        0.1213
     12 C          -1.1510    1.0254    7.2816 C.ar    1  UNL1       -0.0181
     13 C          -1.6975    1.3649    8.5040 C.ar    1  UNL1       -0.0319
     14 C          -0.8893    1.4585    9.6220 C.ar    1  UNL1        0.1057
     15 S          -1.5895    1.8924   11.1796 S.O2    1  UNL1        0.0608
     16 O          -0.5323    2.4380   11.9567 O.2     1  UNL1       -0.1528
     17 O          -2.7905    2.5974   10.8972 O.2     1  UNL1       -0.1528
     18 N          -2.0386    0.4833   11.9247 N.3     1  UNL1       -0.1771
     19 C          -1.0910   -0.2209   12.7921 C.3     1  UNL1        0.0177
     20 C          -1.3244    0.1947   14.2460 C.3     1  UNL1       -0.0507
     21 C          -3.3835   -0.0590   11.7166 C.3     1  UNL1        0.0177
     22 C          -3.3474   -1.0938   10.5902 C.3     1  UNL1       -0.0507
     23 C           0.4673    1.2116    9.5198 C.ar    1  UNL1       -0.0319
     24 C           1.0178    0.8666    8.3007 C.ar    1  UNL1       -0.0181
     25 H           1.0039    1.9031    0.0027 H       1  UNL1        0.0230
     26 H          -0.5459    1.8868   -0.8726 H       1  UNL1        0.0230
     27 H          -0.5289    1.8773    0.9072 H       1  UNL1        0.0230
     28 H          -1.0205   -0.3814    0.0098 H       1  UNL1        0.0280
     29 H           0.5123   -0.3556   -0.8948 H       1  UNL1        0.0280
     30 H           1.4302   -2.3096    0.2763 H       1  UNL1        0.0247
     31 H           1.3991   -2.3948    2.0539 H       1  UNL1        0.0247
     32 H          -0.1210   -2.4817    1.1320 H       1  UNL1        0.0247
     33 H          -0.9647    0.0126    2.3909 H       1  UNL1        0.1491
     34 H          -0.6138    1.3411    4.7092 H       1  UNL1        0.0795
     35 H          -0.9077   -0.3798    5.0565 H       1  UNL1        0.0795
     36 H          -1.7826    0.9531    6.4085 H       1  UNL1        0.0655
     37 H          -2.7570    1.5579    8.5865 H       1  UNL1        0.0638
     38 H          -1.2383   -1.2964   12.6936 H       1  UNL1        0.0441
     39 H          -0.0723    0.0346   12.5003 H       1  UNL1        0.0441
     40 H          -1.1771    1.2702   14.3445 H       1  UNL1        0.0243
     41 H          -2.3431   -0.0607   14.5378 H       1  UNL1        0.0243
     42 H          -0.6194   -0.3292   14.8913 H       1  UNL1        0.0243
     43 H          -3.7301   -0.5333   12.6347 H       1  UNL1        0.0441
     44 H          -4.0632    0.7490   11.4460 H       1  UNL1        0.0441
     45 H          -4.3480   -1.4973   10.4353 H       1  UNL1        0.0243
     46 H          -3.0007   -0.6196    9.6720 H       1  UNL1        0.0243
     47 H          -2.6677   -1.9018   10.8608 H       1  UNL1        0.0243
     48 H           1.0964    1.2850   10.3946 H       1  UNL1        0.0638
     49 H           2.0775    0.6738    8.2214 H       1  UNL1        0.0655
@<TRIPOS>BOND
     1     1     2    1
     2     1    25    1
     3     1    26    1
     4     1    27    1
     5     2     3    1
     6     2    28    1
     7     2    29    1
     8     3     4    1
     9     3     5    1
    10     3     6    1
    11     5    30    1
    12     5    31    1
    13     5    32    1
    14     6     7   am
    15     6    33    1
    16     7     8    2
    17     7     9    1
    18     9    10    1
    19     9    34    1
    20     9    35    1
    21    10    11    1
    22    11    24   ar
    23    11    12   ar
    24    12    13   ar
    25    12    36    1
    26    13    14   ar
    27    13    37    1
    28    14    15    1
    29    14    23   ar
    30    15    16    2
    31    15    17    2
    32    15    18    1
    33    18    19    1
    34    18    21    1
    35    19    20    1
    36    19    38    1
    37    19    39    1
    38    20    40    1
    39    20    41    1
    40    20    42    1
    41    21    22    1
    42    21    43    1
    43    21    44    1
    44    22    45    1
    45    22    46    1
    46    22    47    1
    47    23    24   ar
    48    23    48    1
    49    24    49    1
