@<TRIPOS>MOLECULE
ZINC000025740383
 52 54 0 0 0
SMALL
GASTEIGER

@<TRIPOS>ATOM
      1 C           1.2008    2.8479    0.3510 C.3     1  UNL1        0.0097
      2 N           0.9196    1.4115    0.4142 N.3     1  UNL1       -0.1725
      3 C           0.9057    0.7241    1.7079 C.3     1  UNL1        0.0097
      4 S           0.6176    0.5649   -0.9766 S.O2    1  UNL1        0.0991
      5 O          -0.1325   -0.5800   -0.5945 O.2     1  UNL1       -0.1409
      6 O           0.1582    1.5120   -1.9311 O.2     1  UNL1       -0.1409
      7 N           2.0725    0.0055   -1.5357 N.3     1  UNL1       -0.1634
      8 C           2.8796    0.8143   -2.4599 C.3     1  UNL1        0.0374
      9 C           4.2778    0.9986   -1.8569 C.3     1  UNL1        0.0295
     10 N           4.7852   -0.3153   -1.4374 N.am    1  UNL1       -0.2950
     11 C           5.9697   -0.7702   -1.8917 C.2     1  UNL1        0.2473
     12 O           6.5838   -0.1367   -2.7282 O.2     1  UNL1       -0.2700
     13 C           6.5215   -2.0377   -1.3737 C.ar    1  UNL1        0.0446
     14 C           6.6121   -2.2538    0.0012 C.ar    1  UNL1       -0.0490
     15 C           7.1287   -3.4403    0.4798 C.ar    1  UNL1       -0.0610
     16 C           7.5598   -4.4214   -0.3972 C.ar    1  UNL1       -0.0611
     17 C           7.4777   -4.2250   -1.7614 C.ar    1  UNL1       -0.0533
     18 C           6.9539   -3.0376   -2.2636 C.ar    1  UNL1       -0.0058
     19 C           6.8639   -2.8225   -3.7271 C.ar    1  UNL1       -0.0171
     20 C           5.6405   -2.5003   -4.3133 C.ar    1  UNL1       -0.0535
     21 C           5.5630   -2.3013   -5.6766 C.ar    1  UNL1       -0.0495
     22 C           6.6959   -2.4209   -6.4614 C.ar    1  UNL1        0.0548
     23 C           6.6044   -2.2023   -7.9497 C.3     1  UNL1        0.4174
     24 F           6.8312   -0.8522   -8.2375 F       1  UNL1       -0.1659
     25 F           7.5671   -2.9850   -8.5960 F       1  UNL1       -0.1659
     26 F           5.3300   -2.5668   -8.3971 F       1  UNL1       -0.1659
     27 C           7.9125   -2.7400   -5.8855 C.ar    1  UNL1       -0.0495
     28 C           8.0035   -2.9361   -4.5226 C.ar    1  UNL1       -0.0535
     29 C           3.9780   -1.1242   -0.5132 C.3     1  UNL1        0.0295
     30 C           2.5825   -1.3060   -1.1117 C.3     1  UNL1        0.0374
     31 H           2.2739    3.0035    0.2395 H       1  UNL1        0.0408
     32 H           0.6800    3.2828   -0.5021 H       1  UNL1        0.0408
     33 H           0.8577    3.3260    1.2685 H       1  UNL1        0.0408
     34 H          -0.1011    0.7542    2.1245 H       1  UNL1        0.0408
     35 H           1.2115   -0.3132    1.5715 H       1  UNL1        0.0408
     36 H           1.5962    1.2198    2.3902 H       1  UNL1        0.0408
     37 H           2.9595    0.3031   -3.4193 H       1  UNL1        0.0460
     38 H           2.4102    1.7880   -2.5995 H       1  UNL1        0.0460
     39 H           4.9452    1.4267   -2.6048 H       1  UNL1        0.0478
     40 H           4.2192    1.6609   -0.9932 H       1  UNL1        0.0478
     41 H           6.2784   -1.4926    0.6909 H       1  UNL1        0.0625
     42 H           7.1975   -3.6047    1.5450 H       1  UNL1        0.0618
     43 H           7.9631   -5.3461   -0.0115 H       1  UNL1        0.0618
     44 H           7.8160   -4.9950   -2.4390 H       1  UNL1        0.0624
     45 H           4.7553   -2.4070   -3.7016 H       1  UNL1        0.0624
     46 H           4.6159   -2.0520   -6.1318 H       1  UNL1        0.0623
     47 H           8.7936   -2.8320   -6.5032 H       1  UNL1        0.0623
     48 H           8.9539   -3.1848   -4.0739 H       1  UNL1        0.0624
     49 H           4.4475   -2.0979   -0.3736 H       1  UNL1        0.0478
     50 H           3.8982   -0.6129    0.4462 H       1  UNL1        0.0478
     51 H           1.9162   -1.7342   -0.3629 H       1  UNL1        0.0460
     52 H           2.6386   -1.9676   -1.9762 H       1  UNL1        0.0460
@<TRIPOS>BOND
     1     1     2    1
     2     1    31    1
     3     1    32    1
     4     1    33    1
     5     2     3    1
     6     4     2    1
     7     3    34    1
     8     3    35    1
     9     3    36    1
    10     4     5    2
    11     4     6    2
    12     4     7    1
    13     7    30    1
    14     7     8    1
    15     8     9    1
    16     8    37    1
    17     8    38    1
    18     9    10    1
    19     9    39    1
    20     9    40    1
    21    10    11   am
    22    10    29    1
    23    11    12    2
    24    11    13    1
    25    13    18   ar
    26    13    14   ar
    27    14    15   ar
    28    14    41    1
    29    15    16   ar
    30    15    42    1
    31    16    17   ar
    32    16    43    1
    33    17    18   ar
    34    17    44    1
    35    18    19    1
    36    19    28   ar
    37    19    20   ar
    38    20    21   ar
    39    20    45    1
    40    21    22   ar
    41    21    46    1
    42    22    23    1
    43    22    27   ar
    44    23    24    1
    45    23    25    1
    46    23    26    1
    47    27    28   ar
    48    27    47    1
    49    28    48    1
    50    29    30    1
    51    29    49    1
    52    29    50    1
    53    30    51    1
    54    30    52    1
