@<TRIPOS>MOLECULE
ZINC000226010985
 62 64 0 0 0
SMALL
GASTEIGER

@<TRIPOS>ATOM
      1 C          -9.4634   -6.5717    3.6176 C.3     1  UNL1        0.0790
      2 O          -9.4893   -5.1637    3.3748 O.3     1  UNL1       -0.4915
      3 C          -8.4932   -4.6518    2.6033 C.ar    1  UNL1        0.1616
      4 C          -7.5162   -5.4871    2.0869 C.ar    1  UNL1       -0.0145
      5 C          -6.5043   -4.9650    1.3022 C.ar    1  UNL1       -0.0317
      6 C          -6.4644   -3.6103    1.0316 C.ar    1  UNL1        0.1092
      7 S          -5.1721   -2.9512    0.0316 S.O2    1  UNL1        0.0617
      8 O          -5.1364   -1.5546    0.2912 O.2     1  UNL1       -0.1528
      9 O          -4.0501   -3.8042    0.2123 O.2     1  UNL1       -0.1528
     10 N          -5.6393   -3.1214   -1.5480 N.3     1  UNL1       -0.1635
     11 C          -5.3924   -4.3815   -2.2532 C.3     1  UNL1        0.0975
     12 C          -6.6202   -5.2515   -2.1720 C.2     1  UNL1        0.2330
     13 O          -7.6047   -4.8577   -1.5831 O.2     1  UNL1       -0.2740
     14 N          -6.6244   -6.4672   -2.7539 N.am    1  UNL1       -0.2844
     15 C          -7.7289   -7.3125   -2.6004 C.ar    1  UNL1        0.0334
     16 C          -7.5460   -8.6857   -2.5038 C.ar    1  UNL1       -0.0402
     17 C          -8.6382   -9.5174   -2.3525 C.ar    1  UNL1       -0.0564
     18 C          -9.9129   -8.9840   -2.2975 C.ar    1  UNL1       -0.0385
     19 C         -11.1024   -9.8945   -2.1328 C.3     1  UNL1        0.0489
     20 C         -11.3905  -10.0842   -0.6658 C.2     1  UNL1        0.2148
     21 N         -12.4176  -10.8650   -0.2762 N.am    1  UNL1       -0.3291
     22 O         -10.6980   -9.5342    0.1642 O.2     1  UNL1       -0.2757
     23 C         -10.0983   -7.6170   -2.3930 C.ar    1  UNL1       -0.0564
     24 C          -9.0097   -6.7795   -2.5387 C.ar    1  UNL1       -0.0402
     25 C          -6.2995   -2.0118   -2.2402 C.3     1  UNL1        0.0460
     26 C          -5.2942   -1.2832   -3.0943 C.ar    1  UNL1       -0.0317
     27 C          -4.5017   -0.2960   -2.5390 C.ar    1  UNL1       -0.0573
     28 C          -3.5795    0.3723   -3.3225 C.ar    1  UNL1       -0.0615
     29 C          -3.4495    0.0531   -4.6612 C.ar    1  UNL1       -0.0617
     30 C          -4.2413   -0.9347   -5.2163 C.ar    1  UNL1       -0.0615
     31 C          -5.1605   -1.6060   -4.4318 C.ar    1  UNL1       -0.0573
     32 C          -7.4369   -2.7709    1.5437 C.ar    1  UNL1        0.0101
     33 C          -8.4563   -3.2882    2.3261 C.ar    1  UNL1        0.1633
     34 O          -9.4134   -2.4642    2.8304 O.3     1  UNL1       -0.4914
     35 C          -9.3061   -1.0749    2.5134 C.3     1  UNL1        0.0790
     36 H         -10.3111   -6.8479    4.2446 H       1  UNL1        0.0660
     37 H          -9.5241   -7.1051    2.6690 H       1  UNL1        0.0660
     38 H          -8.5352   -6.8360    4.1243 H       1  UNL1        0.0660
     39 H          -7.5446   -6.5460    2.2974 H       1  UNL1        0.0656
     40 H          -5.7432   -5.6174    0.9002 H       1  UNL1        0.0638
     41 H          -5.1625   -4.1740   -3.2983 H       1  UNL1        0.0540
     42 H          -4.5505   -4.8973   -1.7915 H       1  UNL1        0.0540
     43 H          -5.8618   -6.7562   -3.2790 H       1  UNL1        0.1548
     44 H          -6.5508   -9.1029   -2.5474 H       1  UNL1        0.0636
     45 H          -8.4967  -10.5854   -2.2773 H       1  UNL1        0.0621
     46 H         -11.9706   -9.4495   -2.6190 H       1  UNL1        0.0407
     47 H         -10.8863  -10.8607   -2.5886 H       1  UNL1        0.0407
     48 H         -12.9714  -11.3048   -0.9400 H       1  UNL1        0.1449
     49 H         -12.6030  -10.9871    0.6681 H       1  UNL1        0.1449
     50 H         -11.0951   -7.2035   -2.3497 H       1  UNL1        0.0621
     51 H          -9.1552   -5.7120   -2.6132 H       1  UNL1        0.0636
     52 H          -7.0983   -2.4012   -2.8714 H       1  UNL1        0.0493
     53 H          -6.7191   -1.3238   -1.5062 H       1  UNL1        0.0493
     54 H          -4.6033   -0.0467   -1.4931 H       1  UNL1        0.0621
     55 H          -2.9609    1.1440   -2.8888 H       1  UNL1        0.0618
     56 H          -2.7295    0.5757   -5.2734 H       1  UNL1        0.0618
     57 H          -4.1400   -1.1838   -6.2623 H       1  UNL1        0.0618
     58 H          -5.7791   -2.3777   -4.8655 H       1  UNL1        0.0621
     59 H          -7.4035   -1.7127    1.3308 H       1  UNL1        0.0675
     60 H         -10.1298   -0.5319    2.9767 H       1  UNL1        0.0660
     61 H          -8.3589   -0.6885    2.8898 H       1  UNL1        0.0660
     62 H          -9.3477   -0.9447    1.4320 H       1  UNL1        0.0660
@<TRIPOS>BOND
     1     1     2    1
     2     1    36    1
     3     1    37    1
     4     1    38    1
     5     2     3    1
     6     3    33   ar
     7     3     4   ar
     8     4     5   ar
     9     4    39    1
    10     5     6   ar
    11     5    40    1
    12     6     7    1
    13     6    32   ar
    14     7     8    2
    15     7     9    2
    16     7    10    1
    17    10    11    1
    18    10    25    1
    19    11    12    1
    20    11    41    1
    21    11    42    1
    22    12    13    2
    23    12    14   am
    24    14    15    1
    25    14    43    1
    26    15    24   ar
    27    15    16   ar
    28    16    17   ar
    29    16    44    1
    30    17    18   ar
    31    17    45    1
    32    18    19    1
    33    18    23   ar
    34    19    20    1
    35    19    46    1
    36    19    47    1
    37    20    21   am
    38    20    22    2
    39    21    48    1
    40    21    49    1
    41    23    24   ar
    42    23    50    1
    43    24    51    1
    44    25    26    1
    45    25    52    1
    46    25    53    1
    47    26    31   ar
    48    26    27   ar
    49    27    28   ar
    50    27    54    1
    51    28    29   ar
    52    28    55    1
    53    29    30   ar
    54    29    56    1
    55    30    31   ar
    56    30    57    1
    57    31    58    1
    58    32    33   ar
    59    32    59    1
    60    33    34    1
    61    34    35    1
    62    35    60    1
    63    35    61    1
    64    35    62    1
