@<TRIPOS>MOLECULE
ZINC000408602718
 66 68 0 0 0
SMALL
GASTEIGER

@<TRIPOS>ATOM
      1 C           1.0223   -5.9028  -10.0326 C.3     1  UNL1        0.0788
      2 O           1.5278   -4.5714   -9.9145 O.3     1  UNL1       -0.4948
      3 C           1.7761   -4.1149   -8.6587 C.ar    1  UNL1        0.1231
      4 C           1.5435   -4.9334   -7.5633 C.ar    1  UNL1       -0.0178
      5 C           1.7972   -4.4671   -6.2877 C.ar    1  UNL1       -0.0319
      6 C           2.2820   -3.1857   -6.1026 C.ar    1  UNL1        0.1060
      7 S           2.6039   -2.5938   -4.4745 S.O2    1  UNL1        0.0616
      8 O           2.5210   -1.1767   -4.5390 O.2     1  UNL1       -0.1528
      9 O           1.8089   -3.3798   -3.5973 O.2     1  UNL1       -0.1528
     10 N           4.1819   -2.9545   -4.1249 N.3     1  UNL1       -0.1635
     11 C           4.5349   -4.2833   -3.6191 C.3     1  UNL1        0.0971
     12 C           4.9650   -5.1598   -4.7671 C.2     1  UNL1        0.2290
     13 O           4.9756   -4.7180   -5.8965 O.2     1  UNL1       -0.2743
     14 N           5.3378   -6.4347   -4.5386 N.am    1  UNL1       -0.3114
     15 C           5.7560   -7.2867   -5.6546 C.3     1  UNL1        0.0232
     16 C           7.2410   -7.0576   -5.9424 C.3     1  UNL1       -0.0345
     17 C           7.7740   -8.1990   -6.8109 C.3     1  UNL1       -0.0514
     18 C           7.2996   -8.0069   -8.2529 C.3     1  UNL1       -0.0530
     19 C           5.8246   -8.3985   -8.3607 C.3     1  UNL1       -0.0531
     20 C           5.5856   -9.7035   -7.5989 C.3     1  UNL1       -0.0530
     21 C           4.6977   -9.4294   -6.3833 C.3     1  UNL1       -0.0514
     22 C           5.5270   -8.7545   -5.2889 C.3     1  UNL1       -0.0345
     23 C           5.2249   -1.9447   -4.3215 C.3     1  UNL1        0.0460
     24 C           5.4908   -1.2368   -3.0179 C.ar    1  UNL1       -0.0317
     25 C           4.8526   -0.0433   -2.7368 C.ar    1  UNL1       -0.0573
     26 C           5.0964    0.6060   -1.5410 C.ar    1  UNL1       -0.0615
     27 C           5.9782    0.0616   -0.6262 C.ar    1  UNL1       -0.0617
     28 C           6.6158   -1.1324   -0.9069 C.ar    1  UNL1       -0.0615
     29 C           6.3686   -1.7839   -2.1008 C.ar    1  UNL1       -0.0573
     30 C           2.5150   -2.3679   -7.1931 C.ar    1  UNL1       -0.0290
     31 C           2.2680   -2.8312   -8.4706 C.ar    1  UNL1       -0.0070
     32 C           2.5227   -1.9395   -9.6585 C.3     1  UNL1       -0.0362
     33 H           1.7387   -6.6029   -9.6028 H       1  UNL1        0.0660
     34 H           0.0744   -5.9801   -9.5001 H       1  UNL1        0.0660
     35 H           0.8683   -6.1409  -11.0851 H       1  UNL1        0.0660
     36 H           1.1642   -5.9343   -7.7074 H       1  UNL1        0.0655
     37 H           1.6163   -5.1040   -5.4345 H       1  UNL1        0.0638
     38 H           5.3524   -4.1944   -2.9037 H       1  UNL1        0.0539
     39 H           3.6688   -4.7269   -3.1279 H       1  UNL1        0.0539
     40 H           5.3293   -6.7880   -3.6353 H       1  UNL1        0.1490
     41 H           5.1717   -7.0377   -6.5405 H       1  UNL1        0.0498
     42 H           7.3673   -6.1113   -6.4684 H       1  UNL1        0.0283
     43 H           7.7928   -7.0276   -5.0029 H       1  UNL1        0.0283
     44 H           8.8637   -8.1979   -6.7837 H       1  UNL1        0.0266
     45 H           7.4019   -9.1499   -6.4297 H       1  UNL1        0.0266
     46 H           7.4200   -6.9620   -8.5389 H       1  UNL1        0.0265
     47 H           7.8921   -8.6360   -8.9172 H       1  UNL1        0.0265
     48 H           5.2070   -7.6093   -7.9320 H       1  UNL1        0.0265
     49 H           5.5611   -8.5366   -9.4093 H       1  UNL1        0.0265
     50 H           5.0928  -10.4217   -8.2542 H       1  UNL1        0.0265
     51 H           6.5407  -10.1104   -7.2667 H       1  UNL1        0.0265
     52 H           3.8765   -8.7739   -6.6734 H       1  UNL1        0.0266
     53 H           4.2962  -10.3703   -6.0069 H       1  UNL1        0.0266
     54 H           6.4882   -9.2603   -5.1974 H       1  UNL1        0.0283
     55 H           4.9936   -8.8136   -4.3402 H       1  UNL1        0.0283
     56 H           6.1391   -2.4287   -4.6651 H       1  UNL1        0.0493
     57 H           4.8945   -1.2213   -5.0669 H       1  UNL1        0.0493
     58 H           4.1636    0.3821   -3.4515 H       1  UNL1        0.0621
     59 H           4.5983    1.5388   -1.3217 H       1  UNL1        0.0618
     60 H           6.1693    0.5692    0.3077 H       1  UNL1        0.0618
     61 H           7.3050   -1.5576   -0.1923 H       1  UNL1        0.0618
     62 H           6.8667   -2.7167   -2.3202 H       1  UNL1        0.0621
     63 H           2.8941   -1.3673   -7.0459 H       1  UNL1        0.0641
     64 H           3.5475   -2.0775  -10.0033 H       1  UNL1        0.0279
     65 H           1.8316   -2.1973  -10.4611 H       1  UNL1        0.0279
     66 H           2.3732   -0.8990   -9.3705 H       1  UNL1        0.0279
@<TRIPOS>BOND
     1     1     2    1
     2     1    33    1
     3     1    34    1
     4     1    35    1
     5     2     3    1
     6     3    31   ar
     7     3     4   ar
     8     4     5   ar
     9     4    36    1
    10     5     6   ar
    11     5    37    1
    12     6     7    1
    13     6    30   ar
    14     7     8    2
    15     7     9    2
    16     7    10    1
    17    10    11    1
    18    10    23    1
    19    11    12    1
    20    11    38    1
    21    11    39    1
    22    12    13    2
    23    12    14   am
    24    14    15    1
    25    14    40    1
    26    15    22    1
    27    15    16    1
    28    15    41    1
    29    16    17    1
    30    16    42    1
    31    16    43    1
    32    17    18    1
    33    17    44    1
    34    17    45    1
    35    18    19    1
    36    18    46    1
    37    18    47    1
    38    19    20    1
    39    19    48    1
    40    19    49    1
    41    20    21    1
    42    20    50    1
    43    20    51    1
    44    21    22    1
    45    21    52    1
    46    21    53    1
    47    22    54    1
    48    22    55    1
    49    23    24    1
    50    23    56    1
    51    23    57    1
    52    24    29   ar
    53    24    25   ar
    54    25    26   ar
    55    25    58    1
    56    26    27   ar
    57    26    59    1
    58    27    28   ar
    59    27    60    1
    60    28    29   ar
    61    28    61    1
    62    29    62    1
    63    30    31   ar
    64    30    63    1
    65    31    32    1
    66    32    64    1
    67    32    65    1
    68    32    66    1
