@<TRIPOS>MOLECULE
ZINC000058191032
 40 40 0 0 0
SMALL
GASTEIGER

@<TRIPOS>ATOM
      1 C          -0.0187    1.5258    0.0104 C.3     1  UNL1       -0.0613
      2 C           0.0021   -0.0041    0.0020 C.3     1  UNL1       -0.0305
      3 C          -1.4117   -0.5257    0.0127 C.ar    1  UNL1       -0.0475
      4 C          -2.0507   -0.7660    1.2147 C.ar    1  UNL1       -0.0567
      5 C          -3.3476   -1.2445    1.2246 C.ar    1  UNL1       -0.0351
      6 C          -4.0056   -1.4822    0.0324 C.ar    1  UNL1        0.1055
      7 S          -5.6584   -2.0926    0.0449 S.O2    1  UNL1        0.0613
      8 O          -5.8564   -2.7406   -1.2042 O.2     1  UNL1       -0.1528
      9 O          -5.8361   -2.7442    1.2951 O.2     1  UNL1       -0.1528
     10 N          -6.6662   -0.7786    0.0549 N.3     1  UNL1       -0.1656
     11 C          -7.1223   -0.1956   -1.2093 C.3     1  UNL1        0.0444
     12 C          -8.4870   -0.7809   -1.5779 C.3     1  UNL1        0.0617
     13 O          -9.4552   -0.3807   -0.6060 O.3     1  UNL1       -0.3817
     14 C         -10.7713   -0.8768   -0.8582 C.3     1  UNL1        0.0365
     15 C          -7.1017   -0.1992    1.3281 C.3     1  UNL1        0.0967
     16 C          -6.1938    0.9460    1.6955 C.2     1  UNL1        0.2263
     17 N          -6.4044    1.6342    2.8350 N.am    1  UNL1       -0.3282
     18 O          -5.2735    1.2485    0.9657 O.2     1  UNL1       -0.2746
     19 C          -3.3671   -1.2406   -1.1697 C.ar    1  UNL1       -0.0351
     20 C          -2.0716   -0.7585   -1.1795 C.ar    1  UNL1       -0.0567
     21 H           1.0039    1.9031    0.0027 H       1  UNL1        0.0233
     22 H          -0.5459    1.8868   -0.8726 H       1  UNL1        0.0233
     23 H          -0.5289    1.8773    0.9072 H       1  UNL1        0.0233
     24 H           0.5123   -0.3556   -0.8948 H       1  UNL1        0.0311
     25 H           0.5293   -0.3651    0.8851 H       1  UNL1        0.0311
     26 H          -1.5366   -0.5803    2.1462 H       1  UNL1        0.0621
     27 H          -3.8465   -1.4329    2.1637 H       1  UNL1        0.0637
     28 H          -7.2079    0.8856   -1.1008 H       1  UNL1        0.0467
     29 H          -6.4037   -0.4260   -1.9958 H       1  UNL1        0.0467
     30 H          -8.7858   -0.4153   -2.5603 H       1  UNL1        0.0573
     31 H          -8.4220   -1.8687   -1.5994 H       1  UNL1        0.0573
     32 H         -10.7537   -1.9667   -0.8648 H       1  UNL1        0.0523
     33 H         -11.4467   -0.5291   -0.0765 H       1  UNL1        0.0523
     34 H         -11.1175   -0.5132   -1.8257 H       1  UNL1        0.0523
     35 H          -8.1245    0.1648    1.2306 H       1  UNL1        0.0539
     36 H          -7.0597   -0.9605    2.1070 H       1  UNL1        0.0539
     37 H          -7.1404    1.3923    3.4187 H       1  UNL1        0.1450
     38 H          -5.8200    2.3713    3.0715 H       1  UNL1        0.1450
     39 H          -3.8814   -1.4260   -2.1011 H       1  UNL1        0.0637
     40 H          -1.5728   -0.5697   -2.1186 H       1  UNL1        0.0621
@<TRIPOS>BOND
     1     1     2    1
     2     1    21    1
     3     1    22    1
     4     1    23    1
     5     2     3    1
     6     2    24    1
     7     2    25    1
     8     3    20   ar
     9     3     4   ar
    10     4     5   ar
    11     4    26    1
    12     5     6   ar
    13     5    27    1
    14     6     7    1
    15     6    19   ar
    16     7     8    2
    17     7     9    2
    18     7    10    1
    19    10    11    1
    20    10    15    1
    21    11    12    1
    22    11    28    1
    23    11    29    1
    24    12    13    1
    25    12    30    1
    26    12    31    1
    27    13    14    1
    28    14    32    1
    29    14    33    1
    30    14    34    1
    31    15    16    1
    32    15    35    1
    33    15    36    1
    34    16    17   am
    35    16    18    2
    36    17    37    1
    37    17    38    1
    38    19    20   ar
    39    19    39    1
    40    20    40    1
