@<TRIPOS>MOLECULE
ZINC000028208292
 45 45 0 0 0
SMALL
GASTEIGER

@<TRIPOS>ATOM
      1 C          -0.0187    1.5258    0.0104 C.3     1  UNL1       -0.0636
      2 C           0.0021   -0.0041    0.0020 C.3     1  UNL1       -0.0376
      3 C           0.7182   -0.4975   -1.2568 C.3     1  UNL1        0.0200
      4 H           1.7103   -0.0491   -1.3098 H       1  UNL1        0.0495
      5 C           0.8493   -2.0210   -1.2049 C.3     1  UNL1       -0.0466
      6 N          -0.0549   -0.1139   -2.4405 N.am    1  UNL1       -0.3127
      7 C           0.5610    0.0279   -3.6309 C.2     1  UNL1        0.2135
      8 O           1.7554   -0.1622   -3.7221 O.2     1  UNL1       -0.2758
      9 C          -0.2343    0.4225   -4.8486 C.3     1  UNL1        0.0279
     10 C           0.6974    0.5131   -6.0589 C.3     1  UNL1       -0.0194
     11 C          -0.0980    0.9078   -7.2766 C.ar    1  UNL1       -0.0468
     12 C          -0.6697   -0.0659   -8.0741 C.ar    1  UNL1       -0.0567
     13 C          -1.3992    0.2961   -9.1910 C.ar    1  UNL1       -0.0351
     14 C          -1.5574    1.6318   -9.5103 C.ar    1  UNL1        0.1055
     15 S          -2.4868    2.0931  -10.9343 S.O2    1  UNL1        0.0604
     16 O          -2.0301    3.3851  -11.3103 O.2     1  UNL1       -0.1529
     17 O          -2.4610    0.9744  -11.8101 O.2     1  UNL1       -0.1529
     18 N          -4.0612    2.2751  -10.4544 N.3     1  UNL1       -0.1827
     19 C          -4.5389    3.5793   -9.9884 C.3     1  UNL1        0.0086
     20 C          -4.9764    1.1319  -10.4958 C.3     1  UNL1        0.0086
     21 C          -0.9868    2.6055   -8.7120 C.ar    1  UNL1       -0.0351
     22 C          -0.2605    2.2436   -7.5929 C.ar    1  UNL1       -0.0567
     23 H           1.0039    1.9031    0.0027 H       1  UNL1        0.0230
     24 H          -0.5459    1.8868   -0.8726 H       1  UNL1        0.0230
     25 H          -0.5289    1.8773    0.9072 H       1  UNL1        0.0230
     26 H           0.5293   -0.3651    0.8851 H       1  UNL1        0.0280
     27 H          -1.0205   -0.3814    0.0098 H       1  UNL1        0.0280
     28 H          -0.1428   -2.4694   -1.1520 H       1  UNL1        0.0247
     29 H           1.3594   -2.3725   -2.1017 H       1  UNL1        0.0247
     30 H           1.4245   -2.3064   -0.3242 H       1  UNL1        0.0247
     31 H          -1.0102    0.0381   -2.3676 H       1  UNL1        0.1490
     32 H          -1.0041   -0.3256   -5.0379 H       1  UNL1        0.0361
     33 H          -0.7034    1.3915   -4.6778 H       1  UNL1        0.0361
     34 H           1.4672    1.2612   -5.8696 H       1  UNL1        0.0318
     35 H           1.1665   -0.4558   -6.2296 H       1  UNL1        0.0318
     36 H          -0.5461   -1.1094   -7.8246 H       1  UNL1        0.0621
     37 H          -1.8453   -0.4646   -9.8145 H       1  UNL1        0.0637
     38 H          -4.9221    4.1494  -10.8346 H       1  UNL1        0.0408
     39 H          -5.3345    3.4348   -9.2575 H       1  UNL1        0.0408
     40 H          -3.7155    4.1239   -9.5263 H       1  UNL1        0.0408
     41 H          -4.4458    0.2549  -10.8667 H       1  UNL1        0.0408
     42 H          -5.3529    0.9314   -9.4927 H       1  UNL1        0.0408
     43 H          -5.8114    1.3587  -11.1587 H       1  UNL1        0.0408
     44 H          -1.1107    3.6490   -8.9612 H       1  UNL1        0.0637
     45 H           0.1853    3.0043   -6.9692 H       1  UNL1        0.0621
@<TRIPOS>BOND
     1     1     2    1
     2     1    23    1
     3     1    24    1
     4     1    25    1
     5     2     3    1
     6     2    26    1
     7     2    27    1
     8     3     4    1
     9     3     5    1
    10     3     6    1
    11     5    28    1
    12     5    29    1
    13     5    30    1
    14     6     7   am
    15     6    31    1
    16     7     8    2
    17     7     9    1
    18     9    10    1
    19     9    32    1
    20     9    33    1
    21    10    11    1
    22    10    34    1
    23    10    35    1
    24    11    22   ar
    25    11    12   ar
    26    12    13   ar
    27    12    36    1
    28    13    14   ar
    29    13    37    1
    30    14    15    1
    31    14    21   ar
    32    15    16    2
    33    15    17    2
    34    15    18    1
    35    18    19    1
    36    18    20    1
    37    19    38    1
    38    19    39    1
    39    19    40    1
    40    20    41    1
    41    20    42    1
    42    20    43    1
    43    21    22   ar
    44    21    44    1
    45    22    45    1
