@<TRIPOS>MOLECULE
ZINC000009869104
 55 57 0 0 0
SMALL
GASTEIGER

@<TRIPOS>ATOM
      1 C           3.6482   -8.3946    1.2663 C.3     1  UNL1       -0.0624
      2 C           2.6712   -7.2173    1.2813 C.3     1  UNL1       -0.0438
      3 C           2.9129   -6.3698    2.5320 C.3     1  UNL1       -0.0488
      4 C           1.9359   -5.1925    2.5469 C.3     1  UNL1       -0.0342
      5 C           2.1528   -4.3338    1.2993 C.3     1  UNL1        0.0246
      6 N           3.5275   -3.8275    1.2880 N.am    1  UNL1       -0.2964
      7 C           3.8228   -2.6944    0.6206 C.2     1  UNL1        0.3025
      8 O           2.9699   -2.1424   -0.0473 O.2     1  UNL1       -0.2526
      9 N           5.0636   -2.1732    0.6936 N.am    1  UNL1       -0.2831
     10 C           5.3691   -0.8788    0.0684 C.3     1  UNL1        0.0306
     11 C           5.9608    0.0525    1.1338 C.3     1  UNL1        0.0364
     12 N           7.0323   -0.6632    1.8404 N.3     1  UNL1       -0.1736
     13 S           8.5566   -0.0223    1.9311 S.O2    1  UNL1        0.0609
     14 O           9.4389   -1.1147    2.1487 O.2     1  UNL1       -0.1528
     15 O           8.6820    0.8713    0.8334 O.2     1  UNL1       -0.1528
     16 C           8.6207    0.9669    3.3878 C.ar    1  UNL1        0.1055
     17 C           8.2779    2.3048    3.3304 C.ar    1  UNL1       -0.0348
     18 C           8.3282    3.0808    4.4732 C.ar    1  UNL1       -0.0483
     19 C           8.7208    2.5188    5.6736 C.ar    1  UNL1        0.0549
     20 C           8.7761    3.3650    6.9194 C.3     1  UNL1        0.4174
     21 F           7.5388    3.3177    7.5705 F       1  UNL1       -0.1659
     22 F           9.7709    2.8748    7.7723 F       1  UNL1       -0.1659
     23 F           9.0700    4.6879    6.5720 F       1  UNL1       -0.1659
     24 C           9.0623    1.1806    5.7313 C.ar    1  UNL1       -0.0483
     25 C           9.0083    0.4036    4.5892 C.ar    1  UNL1       -0.0348
     26 C           6.7268   -1.9577    2.4656 C.3     1  UNL1        0.0364
     27 C           6.1337   -2.8863    1.4051 C.3     1  UNL1        0.0306
     28 C           1.9111   -5.1813    0.0486 C.3     1  UNL1       -0.0342
     29 C           2.8881   -6.3586    0.0337 C.3     1  UNL1       -0.0488
     30 H           4.6710   -8.0179    1.2579 H       1  UNL1        0.0232
     31 H           3.4936   -9.0063    2.1551 H       1  UNL1        0.0232
     32 H           3.4760   -8.9983    0.3753 H       1  UNL1        0.0232
     33 H           1.6484   -7.5940    1.2897 H       1  UNL1        0.0298
     34 H           2.7583   -6.9815    3.4208 H       1  UNL1        0.0268
     35 H           3.9357   -5.9931    2.5235 H       1  UNL1        0.0268
     36 H           0.9131   -5.5692    2.5554 H       1  UNL1        0.0283
     37 H           2.1081   -4.5887    3.4380 H       1  UNL1        0.0283
     38 H           1.4568   -3.4950    1.3100 H       1  UNL1        0.0499
     39 H           4.2252   -4.3078    1.7608 H       1  UNL1        0.1505
     40 H           6.0922   -1.0219   -0.7346 H       1  UNL1        0.0478
     41 H           4.4549   -0.4414   -0.3328 H       1  UNL1        0.0478
     42 H           6.3691    0.9428    0.6554 H       1  UNL1        0.0459
     43 H           5.1832    0.3388    1.8420 H       1  UNL1        0.0459
     44 H           7.9711    2.7439    2.3926 H       1  UNL1        0.0637
     45 H           8.0610    4.1263    4.4282 H       1  UNL1        0.0624
     46 H           9.3687    0.7414    6.6692 H       1  UNL1        0.0624
     47 H           9.2751   -0.6419    4.6343 H       1  UNL1        0.0637
     48 H           7.6410   -2.3950    2.8669 H       1  UNL1        0.0459
     49 H           6.0038   -1.8145    3.2686 H       1  UNL1        0.0459
     50 H           5.7258   -3.7760    1.8847 H       1  UNL1        0.0478
     51 H           6.9095   -3.1735    0.6952 H       1  UNL1        0.0478
     52 H           0.8883   -5.5580    0.0571 H       1  UNL1        0.0283
     53 H           2.0657   -4.5695   -0.8402 H       1  UNL1        0.0283
     54 H           3.9109   -5.9819    0.0252 H       1  UNL1        0.0268
     55 H           2.7159   -6.9624   -0.8574 H       1  UNL1        0.0268
@<TRIPOS>BOND
     1     1     2    1
     2     1    30    1
     3     1    31    1
     4     1    32    1
     5     2    29    1
     6     2     3    1
     7     2    33    1
     8     3     4    1
     9     3    34    1
    10     3    35    1
    11     4     5    1
    12     4    36    1
    13     4    37    1
    14     5     6    1
    15     5    28    1
    16     5    38    1
    17     6     7   am
    18     6    39    1
    19     7     8    2
    20     7     9   am
    21     9    27    1
    22     9    10    1
    23    10    11    1
    24    10    40    1
    25    10    41    1
    26    11    12    1
    27    11    42    1
    28    11    43    1
    29    13    12    1
    30    12    26    1
    31    13    14    2
    32    13    15    2
    33    13    16    1
    34    16    25   ar
    35    16    17   ar
    36    17    18   ar
    37    17    44    1
    38    18    19   ar
    39    18    45    1
    40    19    20    1
    41    19    24   ar
    42    20    21    1
    43    20    22    1
    44    20    23    1
    45    24    25   ar
    46    24    46    1
    47    25    47    1
    48    26    27    1
    49    26    48    1
    50    26    49    1
    51    27    50    1
    52    27    51    1
    53    28    29    1
    54    28    52    1
    55    28    53    1
    56    29    54    1
    57    29    55    1
