@<TRIPOS>MOLECULE
ZINC000039986148
 59 60 0 0 0
SMALL
GASTEIGER

@<TRIPOS>ATOM
      1 C          -0.0187    1.5258    0.0104 C.3     1  UNL1       -0.0307
      2 C           0.0021   -0.0041    0.0020 C.3     1  UNL1        0.0868
      3 O          -1.3386   -0.4987    0.0122 O.3     1  UNL1       -0.4922
      4 C          -1.4983   -1.8483    0.0064 C.ar    1  UNL1        0.1206
      5 C          -0.3876   -2.6794   -0.0028 C.ar    1  UNL1       -0.0181
      6 C          -0.5526   -4.0509   -0.0082 C.ar    1  UNL1       -0.0319
      7 C          -1.8235   -4.5955   -0.0047 C.ar    1  UNL1        0.1057
      8 S          -2.0307   -6.3453   -0.0121 S.O2    1  UNL1        0.0613
      9 O          -3.3215   -6.5942   -0.5516 O.2     1  UNL1       -0.1528
     10 O          -0.8394   -6.8880   -0.5648 O.2     1  UNL1       -0.1528
     11 N          -2.0808   -6.8396    1.5676 N.3     1  UNL1       -0.1681
     12 C          -3.3628   -6.9092    2.2731 C.3     1  UNL1        0.0182
     13 C          -3.9134   -8.3343    2.1911 C.3     1  UNL1       -0.0507
     14 C          -0.8430   -7.2074    2.2596 C.3     1  UNL1        0.0968
     15 C          -0.3224   -6.0177    3.0242 C.2     1  UNL1        0.2290
     16 O          -0.9258   -4.9661    2.9940 O.2     1  UNL1       -0.2743
     17 N           0.8138   -6.1223    3.7415 N.am    1  UNL1       -0.3116
     18 C           1.3199   -4.9657    4.4848 C.3     1  UNL1        0.0206
     19 H           1.1067   -4.0538    3.9271 H       1  UNL1        0.0495
     20 C           0.6363   -4.8991    5.8519 C.3     1  UNL1       -0.0466
     21 C           2.8315   -5.1044    4.6767 C.3     1  UNL1       -0.0308
     22 C           3.5260   -5.0458    3.3146 C.3     1  UNL1       -0.0260
     23 C           5.0148   -5.1824    3.5036 C.ar    1  UNL1       -0.0473
     24 C           5.7933   -4.0565    3.6963 C.ar    1  UNL1       -0.0586
     25 C           7.1590   -4.1819    3.8697 C.ar    1  UNL1       -0.0615
     26 C           7.7462   -5.4332    3.8508 C.ar    1  UNL1       -0.0617
     27 C           6.9675   -6.5592    3.6590 C.ar    1  UNL1       -0.0615
     28 C           5.6013   -6.4342    3.4899 C.ar    1  UNL1       -0.0586
     29 C          -2.9322   -3.7693    0.0050 C.ar    1  UNL1       -0.0319
     30 C          -2.7724   -2.3972    0.0157 C.ar    1  UNL1       -0.0181
     31 H           1.0039    1.9031    0.0027 H       1  UNL1        0.0262
     32 H          -0.5459    1.8868   -0.8726 H       1  UNL1        0.0262
     33 H          -0.5289    1.8773    0.9072 H       1  UNL1        0.0262
     34 H           0.5123   -0.3556   -0.8948 H       1  UNL1        0.0694
     35 H           0.5293   -0.3651    0.8851 H       1  UNL1        0.0694
     36 H           0.6053   -2.2545   -0.0062 H       1  UNL1        0.0655
     37 H           0.3118   -4.6984   -0.0154 H       1  UNL1        0.0638
     38 H          -3.2179   -6.6352    3.3181 H       1  UNL1        0.0441
     39 H          -4.0695   -6.2195    1.8114 H       1  UNL1        0.0441
     40 H          -4.0584   -8.6082    1.1460 H       1  UNL1        0.0243
     41 H          -3.2068   -9.0239    2.6528 H       1  UNL1        0.0243
     42 H          -4.8673   -8.3861    2.7159 H       1  UNL1        0.0243
     43 H          -1.0431   -8.0251    2.9521 H       1  UNL1        0.0539
     44 H          -0.0986   -7.5239    1.5291 H       1  UNL1        0.0539
     45 H           1.2965   -6.9633    3.7657 H       1  UNL1        0.1490
     46 H           0.8495   -5.8110    6.4096 H       1  UNL1        0.0247
     47 H           1.0128   -4.0385    6.4049 H       1  UNL1        0.0247
     48 H          -0.4406   -4.8002    5.7152 H       1  UNL1        0.0247
     49 H           3.1942   -4.2908    5.3048 H       1  UNL1        0.0286
     50 H           3.0509   -6.0587    5.1556 H       1  UNL1        0.0286
     51 H           3.1633   -5.8594    2.6865 H       1  UNL1        0.0314
     52 H           3.3066   -4.0915    2.8357 H       1  UNL1        0.0314
     53 H           5.3346   -3.0789    3.7111 H       1  UNL1        0.0620
     54 H           7.7673   -3.3022    4.0195 H       1  UNL1        0.0618
     55 H           8.8132   -5.5311    3.9856 H       1  UNL1        0.0618
     56 H           7.4263   -7.5368    3.6440 H       1  UNL1        0.0618
     57 H           4.9930   -7.3139    3.3401 H       1  UNL1        0.0620
     58 H          -3.9238   -4.1971    0.0080 H       1  UNL1        0.0638
     59 H          -3.6387   -1.7522    0.0232 H       1  UNL1        0.0655
@<TRIPOS>BOND
     1     1     2    1
     2     1    31    1
     3     1    32    1
     4     1    33    1
     5     2     3    1
     6     2    34    1
     7     2    35    1
     8     3     4    1
     9     4    30   ar
    10     4     5   ar
    11     5     6   ar
    12     5    36    1
    13     6     7   ar
    14     6    37    1
    15     7     8    1
    16     7    29   ar
    17     8     9    2
    18     8    10    2
    19     8    11    1
    20    11    12    1
    21    11    14    1
    22    12    13    1
    23    12    38    1
    24    12    39    1
    25    13    40    1
    26    13    41    1
    27    13    42    1
    28    14    15    1
    29    14    43    1
    30    14    44    1
    31    15    16    2
    32    15    17   am
    33    17    18    1
    34    17    45    1
    35    18    19    1
    36    18    20    1
    37    18    21    1
    38    20    46    1
    39    20    47    1
    40    20    48    1
    41    21    22    1
    42    21    49    1
    43    21    50    1
    44    22    23    1
    45    22    51    1
    46    22    52    1
    47    23    28   ar
    48    23    24   ar
    49    24    25   ar
    50    24    53    1
    51    25    26   ar
    52    25    54    1
    53    26    27   ar
    54    26    55    1
    55    27    28   ar
    56    27    56    1
    57    28    57    1
    58    29    30   ar
    59    29    58    1
    60    30    59    1
