@<TRIPOS>MOLECULE
ZINC000408703968
 49 51 0 0 0
SMALL
GASTEIGER

@<TRIPOS>ATOM
      1 C           0.5865    0.9670    0.6613 C.3     1  UNL1       -0.0362
      2 C          -0.0087   -0.3942    0.2958 C.3     1  UNL1        0.1191
      3 H          -1.0914   -0.3619    0.4179 H       1  UNL1        0.0612
      4 C           0.5674   -1.4535    1.1996 C.2     1  UNL1        0.2392
      5 O           1.1884   -2.3819    0.7268 O.2     1  UNL1       -0.2734
      6 N           0.3927   -1.3693    2.5333 N.am    1  UNL1       -0.2839
      7 C           1.0273   -2.2837    3.3812 C.ar    1  UNL1        0.0335
      8 C           0.4092   -2.6865    4.5578 C.ar    1  UNL1       -0.0399
      9 C           1.0383   -3.5891    5.3926 C.ar    1  UNL1       -0.0484
     10 C           2.2825   -4.0915    5.0582 C.ar    1  UNL1        0.0549
     11 C           2.9663   -5.0759    5.9717 C.3     1  UNL1        0.4174
     12 F           2.6023   -6.3776    5.6107 F       1  UNL1       -0.1659
     13 F           4.3532   -4.9312    5.8588 F       1  UNL1       -0.1659
     14 F           2.5781   -4.8328    7.2936 F       1  UNL1       -0.1659
     15 C           2.9004   -3.6927    3.8871 C.ar    1  UNL1       -0.0484
     16 C           2.2741   -2.7947    3.0452 C.ar    1  UNL1       -0.0399
     17 N           0.3163   -0.7112   -1.0971 N.pl3   1  UNL1       -0.1959
     18 C           1.6504   -0.7247   -1.5186 C.ar    1  UNL1        0.0554
     19 C           2.2485   -1.9202   -1.8930 C.ar    1  UNL1       -0.0354
     20 C           3.5669   -1.9341   -2.3073 C.ar    1  UNL1       -0.0145
     21 C           4.2961   -0.7556   -2.3505 C.ar    1  UNL1        0.1622
     22 O           5.5970   -0.7904   -2.7534 O.3     1  UNL1       -0.4849
     23 C           6.1852    0.4568   -3.1384 C.3     1  UNL1        0.1237
     24 C           5.8238    1.5062   -2.0785 C.3     1  UNL1        0.1237
     25 O           4.3972    1.6114   -2.0202 O.3     1  UNL1       -0.4849
     26 C           3.6988    0.4437   -1.9796 C.ar    1  UNL1        0.1639
     27 C           2.3752    0.4582   -1.5680 C.ar    1  UNL1        0.0064
     28 S          -0.8954   -1.0535   -2.1728 S.O2    1  UNL1        0.0433
     29 C          -1.2812    0.5429   -2.9431 C.3     1  UNL1        0.0738
     30 O          -0.2906   -1.9286   -3.1150 O.2     1  UNL1       -0.1552
     31 O          -1.9753   -1.4878   -1.3577 O.2     1  UNL1       -0.1552
     32 H           1.6746    0.9027    0.6496 H       1  UNL1        0.0253
     33 H           0.2588    1.7131   -0.0626 H       1  UNL1        0.0253
     34 H           0.2503    1.2550    1.6574 H       1  UNL1        0.0253
     35 H          -0.1731   -0.6747    2.9054 H       1  UNL1        0.1549
     36 H          -0.5622   -2.2940    4.8199 H       1  UNL1        0.0636
     37 H           0.5581   -3.9028    6.3078 H       1  UNL1        0.0624
     38 H           3.8722   -4.0869    3.6287 H       1  UNL1        0.0624
     39 H           2.7572   -2.4837    2.1308 H       1  UNL1        0.0636
     40 H           1.6834   -2.8399   -1.8603 H       1  UNL1        0.0638
     41 H           4.0304   -2.8653   -2.5977 H       1  UNL1        0.0656
     42 H           7.2684    0.3502   -3.1957 H       1  UNL1        0.0731
     43 H           5.7937    0.7640   -4.1082 H       1  UNL1        0.0731
     44 H           6.2096    1.1959   -1.1074 H       1  UNL1        0.0731
     45 H           6.2525    2.4698   -2.3541 H       1  UNL1        0.0731
     46 H           1.9091    1.3893   -1.2813 H       1  UNL1        0.0674
     47 H          -0.3628    0.9999   -3.3115 H       1  UNL1        0.0482
     48 H          -1.9690    0.3883   -3.7744 H       1  UNL1        0.0482
     49 H          -1.7436    1.1995   -2.2062 H       1  UNL1        0.0482
@<TRIPOS>BOND
     1     1     2    1
     2     1    32    1
     3     1    33    1
     4     1    34    1
     5     2     3    1
     6     2     4    1
     7     2    17    1
     8     4     5    2
     9     4     6   am
    10     6     7    1
    11     6    35    1
    12     7    16   ar
    13     7     8   ar
    14     8     9   ar
    15     8    36    1
    16     9    10   ar
    17     9    37    1
    18    10    11    1
    19    10    15   ar
    20    11    12    1
    21    11    13    1
    22    11    14    1
    23    15    16   ar
    24    15    38    1
    25    16    39    1
    26    17    18    1
    27    28    17    1
    28    18    27   ar
    29    18    19   ar
    30    19    20   ar
    31    19    40    1
    32    20    21   ar
    33    20    41    1
    34    21    26   ar
    35    21    22    1
    36    22    23    1
    37    23    24    1
    38    23    42    1
    39    23    43    1
    40    24    25    1
    41    24    44    1
    42    24    45    1
    43    25    26    1
    44    26    27   ar
    45    27    46    1
    46    28    29    1
    47    28    30    2
    48    28    31    2
    49    29    47    1
    50    29    48    1
    51    29    49    1
