@<TRIPOS>MOLECULE
ZINC000002958765
 55 56 0 0 0
SMALL
GASTEIGER

@<TRIPOS>ATOM
      1 C          -0.0187    1.5258    0.0104 C.3     1  UNL1       -0.0636
      2 C           0.0021   -0.0041    0.0020 C.3     1  UNL1       -0.0376
      3 C           0.7421   -0.5109    1.2415 C.3     1  UNL1        0.0201
      4 H           0.2852   -0.0874    2.1360 H       1  UNL1        0.0495
      5 C           0.6554   -2.0374    1.2986 C.3     1  UNL1       -0.0466
      6 N           2.1476   -0.1038    1.1716 N.am    1  UNL1       -0.3116
      7 C           2.8685    0.0265    2.3029 C.2     1  UNL1        0.2290
      8 O           2.3536   -0.1931    3.3788 O.2     1  UNL1       -0.2743
      9 C           4.3144    0.4453    2.2310 C.3     1  UNL1        0.0968
     10 N           4.8709    0.5137    3.5845 N.3     1  UNL1       -0.1675
     11 C           5.3986   -0.6954    4.2215 C.3     1  UNL1        0.0250
     12 C           6.8522   -0.9050    3.7926 C.3     1  UNL1       -0.0132
     13 C           7.3950   -2.1488    4.4479 C.ar    1  UNL1       -0.0461
     14 C           8.0083   -2.0673    5.6840 C.ar    1  UNL1       -0.0585
     15 C           8.5062   -3.2082    6.2851 C.ar    1  UNL1       -0.0615
     16 C           8.3904   -4.4306    5.6502 C.ar    1  UNL1       -0.0617
     17 C           7.7763   -4.5123    4.4145 C.ar    1  UNL1       -0.0615
     18 C           7.2745   -3.3720    3.8154 C.ar    1  UNL1       -0.0585
     19 S           4.9034    1.9578    4.3943 S.O2    1  UNL1        0.0613
     20 O           5.9374    1.8512    5.3632 O.2     1  UNL1       -0.1528
     21 O           4.8695    2.9749    3.4025 O.2     1  UNL1       -0.1528
     22 C           3.3924    2.0869    5.2913 C.ar    1  UNL1        0.1055
     23 C           2.2865    2.6707    4.7021 C.ar    1  UNL1       -0.0351
     24 C           1.1010    2.7720    5.4058 C.ar    1  UNL1       -0.0570
     25 C           1.0213    2.2891    6.6987 C.ar    1  UNL1       -0.0503
     26 C          -0.2709    2.4000    7.4661 C.3     1  UNL1       -0.0397
     27 C           2.1268    1.7041    7.2874 C.ar    1  UNL1       -0.0570
     28 C           3.3111    1.5994    6.5823 C.ar    1  UNL1       -0.0351
     29 H           1.0039    1.9031    0.0027 H       1  UNL1        0.0230
     30 H          -0.5459    1.8868   -0.8726 H       1  UNL1        0.0230
     31 H          -0.5289    1.8773    0.9072 H       1  UNL1        0.0230
     32 H          -1.0205   -0.3814    0.0098 H       1  UNL1        0.0280
     33 H           0.5123   -0.3556   -0.8948 H       1  UNL1        0.0280
     34 H          -0.3904   -2.3402    1.3506 H       1  UNL1        0.0247
     35 H           1.1123   -2.4609    0.4042 H       1  UNL1        0.0247
     36 H           1.1826   -2.3985    2.1817 H       1  UNL1        0.0247
     37 H           2.5595    0.0718    0.3111 H       1  UNL1        0.1490
     38 H           4.8747   -0.2826    1.6441 H       1  UNL1        0.0539
     39 H           4.3858    1.4251    1.7588 H       1  UNL1        0.0539
     40 H           5.3517   -0.5853    5.3049 H       1  UNL1        0.0447
     41 H           4.8024   -1.5559    3.9176 H       1  UNL1        0.0447
     42 H           6.8991   -1.0151    2.7092 H       1  UNL1        0.0326
     43 H           7.4483   -0.0445    4.0965 H       1  UNL1        0.0326
     44 H           8.0988   -1.1122    6.1800 H       1  UNL1        0.0620
     45 H           8.9860   -3.1444    7.2506 H       1  UNL1        0.0618
     46 H           8.7800   -5.3219    6.1195 H       1  UNL1        0.0618
     47 H           7.6861   -5.4673    3.9183 H       1  UNL1        0.0618
     48 H           6.7947   -3.4358    2.8499 H       1  UNL1        0.0620
     49 H           2.3488    3.0479    3.6921 H       1  UNL1        0.0637
     50 H           0.2373    3.2287    4.9457 H       1  UNL1        0.0621
     51 H          -0.8752    1.5100    7.2906 H       1  UNL1        0.0278
     52 H          -0.0548    2.4884    8.5308 H       1  UNL1        0.0278
     53 H          -0.8175    3.2819    7.1318 H       1  UNL1        0.0278
     54 H           2.0644    1.3266    8.2973 H       1  UNL1        0.0621
     55 H           4.1748    1.1423    7.0423 H       1  UNL1        0.0637
@<TRIPOS>BOND
     1     1     2    1
     2     1    29    1
     3     1    30    1
     4     1    31    1
     5     2     3    1
     6     2    32    1
     7     2    33    1
     8     3     4    1
     9     3     5    1
    10     3     6    1
    11     5    34    1
    12     5    35    1
    13     5    36    1
    14     6     7   am
    15     6    37    1
    16     7     8    2
    17     7     9    1
    18     9    10    1
    19     9    38    1
    20     9    39    1
    21    10    11    1
    22    19    10    1
    23    11    12    1
    24    11    40    1
    25    11    41    1
    26    12    13    1
    27    12    42    1
    28    12    43    1
    29    13    18   ar
    30    13    14   ar
    31    14    15   ar
    32    14    44    1
    33    15    16   ar
    34    15    45    1
    35    16    17   ar
    36    16    46    1
    37    17    18   ar
    38    17    47    1
    39    18    48    1
    40    19    20    2
    41    19    21    2
    42    19    22    1
    43    22    28   ar
    44    22    23   ar
    45    23    24   ar
    46    23    49    1
    47    24    25   ar
    48    24    50    1
    49    25    26    1
    50    25    27   ar
    51    26    51    1
    52    26    52    1
    53    26    53    1
    54    27    28   ar
    55    27    54    1
    56    28    55    1
