@<TRIPOS>MOLECULE
ZINC000253427233
 44 46 0 0 0
SMALL
GASTEIGER

@<TRIPOS>ATOM
      1 C          -0.0184    1.5028    0.0103 C.3     1  UNL1       -0.0184
      2 C           0.0021   -0.0041    0.0020 C.ar    1  UNL1        0.0842
      3 C           0.0085   -0.8009   -1.0836 C.ar    1  UNL1        0.1900
      4 N           0.0275   -2.0745   -0.6635 N.ar    1  UNL1       -0.2008
      5 H           0.0361   -2.8555   -1.2387 H       1  UNL1        0.4538
      6 C           0.0331   -2.0972    0.6413 C.ar    1  UNL1        0.2468
      7 N           0.0236   -0.8258    1.0965 N.ar    1  UNL1       -0.2901
      8 C           0.0261   -0.4049    2.4997 C.3     1  UNL1        0.0420
      9 C          -1.2167   -0.9587    3.2003 C.3     1  UNL1       -0.0174
     10 C          -1.2286   -0.4879    4.6581 C.3     1  UNL1        0.0224
     11 N           0.0414   -0.8717    5.2893 N.3     1  UNL1       -0.1764
     12 S           0.0543   -1.7436    6.6972 S.O2    1  UNL1        0.0609
     13 O           1.3045   -1.4818    7.3199 O.2     1  UNL1       -0.1528
     14 O          -1.1949   -1.5023    7.3300 O.2     1  UNL1       -0.1528
     15 C           0.0665   -3.4490    6.2544 C.ar    1  UNL1        0.1055
     16 C          -1.1259   -4.1264    6.0800 C.ar    1  UNL1       -0.0348
     17 C          -1.1163   -5.4643    5.7326 C.ar    1  UNL1       -0.0483
     18 C           0.0856   -6.1248    5.5591 C.ar    1  UNL1        0.0549
     19 C           0.0960   -7.5835    5.1809 C.3     1  UNL1        0.4174
     20 F           0.0969   -7.7039    3.7871 F       1  UNL1       -0.1659
     21 F           1.2427   -8.1923    5.7022 F       1  UNL1       -0.1659
     22 F          -1.0418   -8.2086    5.7022 F       1  UNL1       -0.1659
     23 C           1.2779   -5.4471    5.7321 C.ar    1  UNL1       -0.0483
     24 C           1.2684   -4.1082    6.0758 C.ar    1  UNL1       -0.0348
     25 C           1.2998   -0.4676    4.6476 C.3     1  UNL1        0.0224
     26 C           1.2834   -0.9386    3.1899 C.3     1  UNL1       -0.0174
     27 H           1.0042    1.8801    0.0026 H       1  UNL1        0.0294
     28 H          -0.5455    1.8639   -0.8728 H       1  UNL1        0.0294
     29 H          -0.5286    1.8543    0.9071 H       1  UNL1        0.0294
     30 H          -0.0001   -0.4720   -2.1123 H       1  UNL1        0.1394
     31 H           0.0470   -2.9856    1.2553 H       1  UNL1        0.1600
     32 H           0.0174    0.6838    2.5522 H       1  UNL1        0.0530
     33 H          -2.1115   -0.5969    2.6939 H       1  UNL1        0.0298
     34 H          -1.1963   -2.0481    3.1700 H       1  UNL1        0.0298
     35 H          -1.3402    0.5958    4.6911 H       1  UNL1        0.0444
     36 H          -2.0568   -0.9590    5.1875 H       1  UNL1        0.0444
     37 H          -2.0649   -3.6103    6.2155 H       1  UNL1        0.0637
     38 H          -2.0478   -5.9937    5.5971 H       1  UNL1        0.0624
     39 H           2.2170   -5.9630    5.5962 H       1  UNL1        0.0624
     40 H           2.1999   -3.5787    6.2110 H       1  UNL1        0.0637
     41 H           1.3943    0.6178    4.6798 H       1  UNL1        0.0444
     42 H           2.1399   -0.9253    5.1700 H       1  UNL1        0.0444
     43 H           1.2802   -2.0282    3.1597 H       1  UNL1        0.0298
     44 H           2.1680   -0.5625    2.6761 H       1  UNL1        0.0298
@<TRIPOS>UNITY_ATOM_ATTR
4 1
charge 1
@<TRIPOS>BOND
     1     1     2    1
     2     1    27    1
     3     1    28    1
     4     1    29    1
     5     2     7   ar
     6     2     3   ar
     7     3     4   ar
     8     3    30    1
     9     4     5    1
    10     4     6   ar
    11     6     7   ar
    12     6    31    1
    13     7     8    1
    14     8    26    1
    15     8     9    1
    16     8    32    1
    17     9    10    1
    18     9    33    1
    19     9    34    1
    20    10    11    1
    21    10    35    1
    22    10    36    1
    23    12    11    1
    24    11    25    1
    25    12    13    2
    26    12    14    2
    27    12    15    1
    28    15    24   ar
    29    15    16   ar
    30    16    17   ar
    31    16    37    1
    32    17    18   ar
    33    17    38    1
    34    18    19    1
    35    18    23   ar
    36    19    20    1
    37    19    21    1
    38    19    22    1
    39    23    24   ar
    40    23    39    1
    41    24    40    1
    42    25    26    1
    43    25    41    1
    44    25    42    1
    45    26    43    1
    46    26    44    1
