@<TRIPOS>MOLECULE
ZINC000408549985
 59 60 0 0 0
SMALL
GASTEIGER

@<TRIPOS>ATOM
      1 C          -0.0187    1.5258    0.0104 C.3     1  UNL1       -0.0652
      2 C           0.0021   -0.0041    0.0020 C.3     1  UNL1       -0.0542
      3 C           0.7182   -0.4975   -1.2568 C.3     1  UNL1       -0.0350
      4 C           0.7390   -2.0273   -1.2652 C.3     1  UNL1        0.0203
      5 H           1.1870   -2.3897   -0.3400 H       1  UNL1        0.0495
      6 C           1.5619   -2.5197   -2.4574 C.3     1  UNL1       -0.0466
      7 N          -0.6313   -2.5337   -1.3752 N.am    1  UNL1       -0.3116
      8 C          -0.9349   -3.7625   -0.9121 C.2     1  UNL1        0.2290
      9 O          -0.0737   -4.4490   -0.4043 O.2     1  UNL1       -0.2743
     10 C          -2.3445   -4.2833   -1.0253 C.3     1  UNL1        0.0971
     11 N          -2.4146   -5.6306   -0.4541 N.3     1  UNL1       -0.1635
     12 C          -2.6151   -5.8059    0.9865 C.3     1  UNL1        0.0460
     13 C          -4.0884   -5.7533    1.2987 C.ar    1  UNL1       -0.0317
     14 C          -4.6903   -4.5437    1.5910 C.ar    1  UNL1       -0.0573
     15 C          -6.0418   -4.4955    1.8773 C.ar    1  UNL1       -0.0615
     16 C          -6.7915   -5.6569    1.8710 C.ar    1  UNL1       -0.0617
     17 C          -6.1898   -6.8664    1.5779 C.ar    1  UNL1       -0.0615
     18 C          -4.8392   -6.9140    1.2873 C.ar    1  UNL1       -0.0573
     19 S          -2.2672   -6.9553   -1.4368 S.O2    1  UNL1        0.0616
     20 O          -2.9039   -8.0301   -0.7596 O.2     1  UNL1       -0.1528
     21 O          -2.6374   -6.5304   -2.7413 O.2     1  UNL1       -0.1528
     22 C          -0.5541   -7.3603   -1.5129 C.ar    1  UNL1        0.1060
     23 C           0.2457   -6.7957   -2.4889 C.ar    1  UNL1       -0.0319
     24 C           1.5895   -7.1113   -2.5504 C.ar    1  UNL1       -0.0178
     25 C           2.1358   -7.9954   -1.6318 C.ar    1  UNL1        0.1231
     26 O           3.4573   -8.3071   -1.6899 O.3     1  UNL1       -0.4948
     27 C           4.2252   -7.6872   -2.7234 C.3     1  UNL1        0.0788
     28 C           1.3309   -8.5607   -0.6531 C.ar    1  UNL1       -0.0070
     29 C           1.9213   -9.5213    0.3468 C.3     1  UNL1       -0.0362
     30 C          -0.0108   -8.2379   -0.5927 C.ar    1  UNL1       -0.0290
     31 H           1.0039    1.9031    0.0027 H       1  UNL1        0.0230
     32 H          -0.5459    1.8868   -0.8726 H       1  UNL1        0.0230
     33 H          -0.5289    1.8773    0.9072 H       1  UNL1        0.0230
     34 H           0.5293   -0.3651    0.8851 H       1  UNL1        0.0263
     35 H          -1.0205   -0.3814    0.0098 H       1  UNL1        0.0263
     36 H           0.1910   -0.1364   -2.1398 H       1  UNL1        0.0283
     37 H           1.7408   -0.1202   -1.2645 H       1  UNL1        0.0283
     38 H           2.5814   -2.1429   -2.3755 H       1  UNL1        0.0247
     39 H           1.5766   -3.6095   -2.4634 H       1  UNL1        0.0247
     40 H           1.1138   -2.1573   -3.3826 H       1  UNL1        0.0247
     41 H          -1.3201   -1.9846   -1.7814 H       1  UNL1        0.1490
     42 H          -3.0206   -3.6229   -0.4824 H       1  UNL1        0.0539
     43 H          -2.6358   -4.3182   -2.0751 H       1  UNL1        0.0539
     44 H          -2.2126   -6.7708    1.2946 H       1  UNL1        0.0493
     45 H          -2.1010   -5.0093    1.5244 H       1  UNL1        0.0493
     46 H          -4.1046   -3.6363    1.5959 H       1  UNL1        0.0621
     47 H          -6.5119   -3.5505    2.1064 H       1  UNL1        0.0618
     48 H          -7.8473   -5.6193    2.0955 H       1  UNL1        0.0618
     49 H          -6.7755   -7.7738    1.5733 H       1  UNL1        0.0618
     50 H          -4.3691   -7.8589    1.0582 H       1  UNL1        0.0621
     51 H          -0.1802   -6.1076   -3.2042 H       1  UNL1        0.0638
     52 H           2.2138   -6.6702   -3.3134 H       1  UNL1        0.0655
     53 H           4.1846   -6.6043   -2.6065 H       1  UNL1        0.0660
     54 H           5.2606   -8.0212   -2.6568 H       1  UNL1        0.0660
     55 H           3.8161   -7.9633   -3.6953 H       1  UNL1        0.0660
     56 H           2.2763   -8.9680    1.2162 H       1  UNL1        0.0279
     57 H           1.1594  -10.2362    0.6574 H       1  UNL1        0.0279
     58 H           2.7551  -10.0543   -0.1100 H       1  UNL1        0.0279
     59 H          -0.6376   -8.6774    0.1691 H       1  UNL1        0.0641
@<TRIPOS>BOND
     1     1     2    1
     2     1    31    1
     3     1    32    1
     4     1    33    1
     5     2     3    1
     6     2    34    1
     7     2    35    1
     8     3     4    1
     9     3    36    1
    10     3    37    1
    11     4     5    1
    12     4     6    1
    13     4     7    1
    14     6    38    1
    15     6    39    1
    16     6    40    1
    17     7     8   am
    18     7    41    1
    19     8     9    2
    20     8    10    1
    21    10    11    1
    22    10    42    1
    23    10    43    1
    24    11    12    1
    25    19    11    1
    26    12    13    1
    27    12    44    1
    28    12    45    1
    29    13    18   ar
    30    13    14   ar
    31    14    15   ar
    32    14    46    1
    33    15    16   ar
    34    15    47    1
    35    16    17   ar
    36    16    48    1
    37    17    18   ar
    38    17    49    1
    39    18    50    1
    40    19    20    2
    41    19    21    2
    42    19    22    1
    43    22    30   ar
    44    22    23   ar
    45    23    24   ar
    46    23    51    1
    47    24    25   ar
    48    24    52    1
    49    25    26    1
    50    25    28   ar
    51    26    27    1
    52    27    53    1
    53    27    54    1
    54    27    55    1
    55    28    29    1
    56    28    30   ar
    57    29    56    1
    58    29    57    1
    59    29    58    1
    60    30    59    1
