@<TRIPOS>MOLECULE
ZINC000028208086
 49 49 0 0 0
SMALL
GASTEIGER

@<TRIPOS>ATOM
      1 C          -0.0187    1.5258    0.0104 C.3     1  UNL1       -0.0636
      2 C           0.0021   -0.0041    0.0020 C.3     1  UNL1       -0.0376
      3 C           0.7421   -0.5109    1.2415 C.3     1  UNL1        0.0202
      4 H           0.2852   -0.0874    2.1360 H       1  UNL1        0.0495
      5 C           0.6554   -2.0374    1.2986 C.3     1  UNL1       -0.0466
      6 N           2.1476   -0.1038    1.1716 N.am    1  UNL1       -0.3099
      7 C           2.8685    0.0265    2.3029 C.2     1  UNL1        0.2509
      8 O           2.3536   -0.1931    3.3788 O.2     1  UNL1       -0.2721
      9 C           4.3144    0.4453    2.2310 C.3     1  UNL1        0.1652
     10 O           4.8572    0.5120    3.5512 O.3     1  UNL1       -0.4813
     11 C           6.1614    0.8777    3.6644 C.ar    1  UNL1        0.1395
     12 C           6.9014    1.1718    2.5292 C.ar    1  UNL1       -0.0166
     13 C           8.2271    1.5439    2.6468 C.ar    1  UNL1       -0.0318
     14 C           8.8164    1.6228    3.8947 C.ar    1  UNL1        0.1071
     15 S          10.5070    2.0976    4.0404 S.O2    1  UNL1        0.0609
     16 O          10.9661    1.5721    5.2783 O.2     1  UNL1       -0.1528
     17 O          11.1176    1.7954    2.7934 O.2     1  UNL1       -0.1528
     18 N          10.5418    3.7464    4.1907 N.3     1  UNL1       -0.1771
     19 C          10.4804    4.3624    5.5185 C.3     1  UNL1        0.0177
     20 C          11.8991    4.6528    6.0122 C.3     1  UNL1       -0.0507
     21 C          10.6342    4.5891    2.9959 C.3     1  UNL1        0.0177
     22 C           9.2308    5.0232    2.5683 C.3     1  UNL1       -0.0507
     23 C           8.0814    1.3302    5.0290 C.ar    1  UNL1       -0.0134
     24 C           6.7536    0.9631    4.9175 C.ar    1  UNL1        0.0844
     25 CL          5.8310    0.5958    6.3414 Cl      1  UNL1       -0.0797
     26 H           1.0039    1.9031    0.0027 H       1  UNL1        0.0230
     27 H          -0.5459    1.8868   -0.8726 H       1  UNL1        0.0230
     28 H          -0.5289    1.8773    0.9072 H       1  UNL1        0.0230
     29 H          -1.0205   -0.3814    0.0098 H       1  UNL1        0.0280
     30 H           0.5123   -0.3556   -0.8948 H       1  UNL1        0.0280
     31 H           1.1123   -2.4609    0.4042 H       1  UNL1        0.0247
     32 H           1.1826   -2.3985    2.1817 H       1  UNL1        0.0247
     33 H          -0.3904   -2.3402    1.3506 H       1  UNL1        0.0247
     34 H           2.5595    0.0718    0.3111 H       1  UNL1        0.1491
     35 H           4.8747   -0.2826    1.6441 H       1  UNL1        0.0795
     36 H           4.3858    1.4251    1.7588 H       1  UNL1        0.0795
     37 H           6.4420    1.1098    1.5537 H       1  UNL1        0.0655
     38 H           8.8035    1.7730    1.7626 H       1  UNL1        0.0638
     39 H           9.9178    5.2942    5.4611 H       1  UNL1        0.0441
     40 H           9.9865    3.6819    6.2122 H       1  UNL1        0.0441
     41 H          12.4617    3.7210    6.0696 H       1  UNL1        0.0243
     42 H          12.3930    5.3333    5.3185 H       1  UNL1        0.0243
     43 H          11.8534    5.1111    7.0001 H       1  UNL1        0.0243
     44 H          11.2352    5.4707    3.2187 H       1  UNL1        0.0441
     45 H          11.1017    4.0251    2.1888 H       1  UNL1        0.0441
     46 H           8.6298    4.1416    2.3455 H       1  UNL1        0.0243
     47 H           8.7632    5.5872    3.3754 H       1  UNL1        0.0243
     48 H           9.2995    5.6502    1.6793 H       1  UNL1        0.0243
     49 H           8.5441    1.3926    6.0028 H       1  UNL1        0.0653
@<TRIPOS>BOND
     1     1     2    1
     2     1    26    1
     3     1    27    1
     4     1    28    1
     5     2     3    1
     6     2    29    1
     7     2    30    1
     8     3     4    1
     9     3     5    1
    10     3     6    1
    11     5    31    1
    12     5    32    1
    13     5    33    1
    14     6     7   am
    15     6    34    1
    16     7     8    2
    17     7     9    1
    18     9    10    1
    19     9    35    1
    20     9    36    1
    21    10    11    1
    22    11    24   ar
    23    11    12   ar
    24    12    13   ar
    25    12    37    1
    26    13    14   ar
    27    13    38    1
    28    14    15    1
    29    14    23   ar
    30    15    16    2
    31    15    17    2
    32    15    18    1
    33    18    19    1
    34    18    21    1
    35    19    20    1
    36    19    39    1
    37    19    40    1
    38    20    41    1
    39    20    42    1
    40    20    43    1
    41    21    22    1
    42    21    44    1
    43    21    45    1
    44    22    46    1
    45    22    47    1
    46    22    48    1
    47    23    24   ar
    48    23    49    1
    49    24    25    1
