@<TRIPOS>MOLECULE
ZINC000071850197
 44 46 0 0 0
SMALL
GASTEIGER

@<TRIPOS>ATOM
      1 O           0.0021   -0.0041    0.0020 O.2     1  UNL1       -0.2740
      2 C          -0.0144    1.2086    0.0087 C.2     1  UNL1        0.2322
      3 N           1.1435    1.8983    0.0013 N.am    1  UNL1       -0.3099
      4 C           2.4220    1.1832   -0.0147 C.3     1  UNL1        0.0369
      5 C           3.5540    2.1779   -0.0202 C.ar    1  UNL1       -0.0303
      6 C           4.0580    2.6449   -1.2197 C.ar    1  UNL1       -0.0565
      7 C           5.0964    3.5574   -1.2247 C.ar    1  UNL1       -0.0498
      8 C           5.6304    4.0033   -0.0302 C.ar    1  UNL1        0.0548
      9 C           6.7628    4.9977   -0.0357 C.3     1  UNL1        0.4174
     10 F           6.2430    6.2964   -0.0182 F       1  UNL1       -0.1659
     11 F           7.5623    4.8002    1.0952 F       1  UNL1       -0.1659
     12 F           7.5342    4.8196   -1.1891 F       1  UNL1       -0.1659
     13 C           5.1256    3.5374    1.1693 C.ar    1  UNL1       -0.0498
     14 C           4.0846    2.6278    1.1744 C.ar    1  UNL1       -0.0565
     15 C          -1.3296    1.9443    0.0189 C.3     1  UNL1        0.1078
     16 H          -1.4016    2.5867   -0.8587 H       1  UNL1        0.0575
     17 C          -1.4458    2.7937    1.3021 C.3     1  UNL1       -0.0260
     18 C          -2.9413    2.6402    1.6861 C.3     1  UNL1       -0.0366
     19 C          -3.2216    1.1758    1.2658 C.3     1  UNL1        0.0214
     20 N          -2.4409    0.9817    0.0266 N.3     1  UNL1       -0.1643
     21 S          -2.7641   -0.1348   -1.1529 S.O2    1  UNL1        0.0678
     22 O          -1.5387   -0.3644   -1.8347 O.2     1  UNL1       -0.1523
     23 O          -3.5133   -1.1699   -0.5311 O.2     1  UNL1       -0.1523
     24 C          -3.8440    0.6319   -2.3150 C.ar    1  UNL1        0.1427
     25 C          -3.4544    1.3132   -3.3936 C.ar    1  UNL1       -0.0281
     26 C          -4.4843    1.8268   -4.1626 C.ar    1  UNL1       -0.0528
     27 C          -5.7104    1.5626   -3.7086 C.ar    1  UNL1       -0.0224
     28 S          -5.6009    0.6094   -2.2345 S.2     1  UNL1       -0.0770
     29 H           1.1304    2.8682    0.0067 H       1  UNL1        0.1491
     30 H           2.4967    0.5526    0.8712 H       1  UNL1        0.0512
     31 H           2.4797    0.5621   -0.9086 H       1  UNL1        0.0512
     32 H           3.6407    2.2965   -2.1529 H       1  UNL1        0.0621
     33 H           5.4906    3.9217   -2.1619 H       1  UNL1        0.0623
     34 H           5.5426    3.8860    2.1026 H       1  UNL1        0.0623
     35 H           3.6902    2.2638    2.1116 H       1  UNL1        0.0621
     36 H          -0.8032    2.3958    2.0875 H       1  UNL1        0.0286
     37 H          -1.2054    3.8369    1.0972 H       1  UNL1        0.0286
     38 H          -3.0849    2.7732    2.7584 H       1  UNL1        0.0279
     39 H          -3.5630    3.3347    1.1212 H       1  UNL1        0.0279
     40 H          -2.8834    0.4874    2.0403 H       1  UNL1        0.0444
     41 H          -4.2843    1.0344    1.0691 H       1  UNL1        0.0444
     42 H          -2.4140    1.4537   -3.6473 H       1  UNL1        0.0642
     43 H          -4.3085    2.3984   -5.0619 H       1  UNL1        0.0623
     44 H          -6.6299    1.8820   -4.1766 H       1  UNL1        0.0694
@<TRIPOS>BOND
     1     1     2    2
     2     2     3   am
     3     2    15    1
     4     3     4    1
     5     3    29    1
     6     4     5    1
     7     4    30    1
     8     4    31    1
     9     5    14   ar
    10     5     6   ar
    11     6     7   ar
    12     6    32    1
    13     7     8   ar
    14     7    33    1
    15     8     9    1
    16     8    13   ar
    17     9    10    1
    18     9    11    1
    19     9    12    1
    20    13    14   ar
    21    13    34    1
    22    14    35    1
    23    15    16    1
    24    15    20    1
    25    15    17    1
    26    17    18    1
    27    17    36    1
    28    17    37    1
    29    18    19    1
    30    18    38    1
    31    18    39    1
    32    19    20    1
    33    19    40    1
    34    19    41    1
    35    21    20    1
    36    21    22    2
    37    21    23    2
    38    21    24    1
    39    24    28   ar
    40    24    25   ar
    41    25    26   ar
    42    25    42    1
    43    26    27   ar
    44    26    43    1
    45    27    28   ar
    46    27    44    1
