@<TRIPOS>MOLECULE
ZINC000001075752
 54 56 0 0 0
SMALL
GASTEIGER

@<TRIPOS>ATOM
      1 C          -9.0526   -6.1172    4.1531 C.3     1  UNL1        0.0789
      2 O          -9.2360   -4.7915    3.6521 O.3     1  UNL1       -0.4936
      3 C          -8.2837   -4.3135    2.8081 C.ar    1  UNL1        0.1384
      4 C          -7.1987   -5.1059    2.4650 C.ar    1  UNL1       -0.0166
      5 C          -6.2320   -4.6180    1.6064 C.ar    1  UNL1       -0.0318
      6 C          -6.3451   -3.3408    1.0897 C.ar    1  UNL1        0.1071
      7 S          -5.1104   -2.7224   -0.0047 S.O2    1  UNL1        0.0616
      8 O          -5.1596   -1.3057    0.0944 O.2     1  UNL1       -0.1528
      9 O          -3.9344   -3.4788    0.2485 O.2     1  UNL1       -0.1528
     10 N          -5.5869   -3.1002   -1.5450 N.3     1  UNL1       -0.1635
     11 C          -5.2925   -4.4242   -2.0988 C.3     1  UNL1        0.0971
     12 C          -6.4800   -5.3294   -1.8947 C.2     1  UNL1        0.2290
     13 O          -7.4743   -4.9099   -1.3412 O.2     1  UNL1       -0.2743
     14 N          -6.4371   -6.6051   -2.3273 N.am    1  UNL1       -0.3114
     15 C          -7.5915   -7.4851   -2.1289 C.3     1  UNL1        0.0232
     16 C          -8.5715   -7.3458   -3.3121 C.3     1  UNL1       -0.0345
     17 C          -8.1898   -8.5094   -4.2605 C.3     1  UNL1       -0.0513
     18 C          -7.8554   -9.6573   -3.2759 C.3     1  UNL1       -0.0513
     19 C          -7.1362   -8.9547   -2.1059 C.3     1  UNL1       -0.0345
     20 C          -6.3027   -2.1105   -2.3539 C.3     1  UNL1        0.0460
     21 C          -5.3239   -1.3816   -3.2380 C.ar    1  UNL1       -0.0317
     22 C          -4.7910   -0.1732   -2.8298 C.ar    1  UNL1       -0.0573
     23 C          -3.8931    0.4954   -3.6407 C.ar    1  UNL1       -0.0615
     24 C          -3.5279   -0.0445   -4.8597 C.ar    1  UNL1       -0.0617
     25 C          -4.0602   -1.2534   -5.2676 C.ar    1  UNL1       -0.0615
     26 C          -4.9547   -1.9241   -4.4547 C.ar    1  UNL1       -0.0573
     27 C          -7.4258   -2.5479    1.4298 C.ar    1  UNL1       -0.0134
     28 C          -8.3985   -3.0330    2.2836 C.ar    1  UNL1        0.0844
     29 CL         -9.7551   -2.0375    2.7104 Cl      1  UNL1       -0.0797
     30 H          -9.8812   -6.3740    4.8130 H       1  UNL1        0.0660
     31 H          -9.0204   -6.8193    3.3200 H       1  UNL1        0.0660
     32 H          -8.1161   -6.1693    4.7085 H       1  UNL1        0.0660
     33 H          -7.1090   -6.1036    2.8687 H       1  UNL1        0.0655
     34 H          -5.3869   -5.2351    1.3391 H       1  UNL1        0.0638
     35 H          -5.0834   -4.3339   -3.1647 H       1  UNL1        0.0539
     36 H          -4.4238   -4.8449   -1.5924 H       1  UNL1        0.0539
     37 H          -5.6419   -6.9407   -2.7700 H       1  UNL1        0.1490
     38 H          -8.0948   -7.2354   -1.1949 H       1  UNL1        0.0498
     39 H          -9.6007   -7.4547   -2.9698 H       1  UNL1        0.0283
     40 H          -8.4338   -6.3864   -3.8107 H       1  UNL1        0.0283
     41 H          -9.0314   -8.7801   -4.8981 H       1  UNL1        0.0266
     42 H          -7.3177   -8.2486   -4.8603 H       1  UNL1        0.0266
     43 H          -8.7689  -10.1394   -2.9278 H       1  UNL1        0.0266
     44 H          -7.1951  -10.3847   -3.7480 H       1  UNL1        0.0266
     45 H          -6.0563   -9.0133   -2.2423 H       1  UNL1        0.0283
     46 H          -7.4193   -9.4186   -1.1610 H       1  UNL1        0.0283
     47 H          -7.0450   -2.6151   -2.9724 H       1  UNL1        0.0493
     48 H          -6.8010   -1.3969   -1.6978 H       1  UNL1        0.0493
     49 H          -5.0763    0.2487   -1.8774 H       1  UNL1        0.0621
     50 H          -3.4773    1.4399   -3.3221 H       1  UNL1        0.0618
     51 H          -2.8270    0.4782   -5.4937 H       1  UNL1        0.0618
     52 H          -3.7751   -1.6750   -6.2201 H       1  UNL1        0.0618
     53 H          -5.3705   -2.8685   -4.7733 H       1  UNL1        0.0621
     54 H          -7.5120   -1.5504    1.0248 H       1  UNL1        0.0653
@<TRIPOS>BOND
     1     1     2    1
     2     1    30    1
     3     1    31    1
     4     1    32    1
     5     2     3    1
     6     3    28   ar
     7     3     4   ar
     8     4     5   ar
     9     4    33    1
    10     5     6   ar
    11     5    34    1
    12     6     7    1
    13     6    27   ar
    14     7     8    2
    15     7     9    2
    16     7    10    1
    17    10    11    1
    18    10    20    1
    19    11    12    1
    20    11    35    1
    21    11    36    1
    22    12    13    2
    23    12    14   am
    24    14    15    1
    25    14    37    1
    26    15    19    1
    27    15    16    1
    28    15    38    1
    29    16    17    1
    30    16    39    1
    31    16    40    1
    32    17    18    1
    33    17    41    1
    34    17    42    1
    35    18    19    1
    36    18    43    1
    37    18    44    1
    38    19    45    1
    39    19    46    1
    40    20    21    1
    41    20    47    1
    42    20    48    1
    43    21    26   ar
    44    21    22   ar
    45    22    23   ar
    46    22    49    1
    47    23    24   ar
    48    23    50    1
    49    24    25   ar
    50    24    51    1
    51    25    26   ar
    52    25    52    1
    53    26    53    1
    54    27    28   ar
    55    27    54    1
    56    28    29    1
