@<TRIPOS>MOLECULE
ZINC000027773341
 58 59 0 0 0
SMALL
GASTEIGER

@<TRIPOS>ATOM
      1 C          -0.0187    1.5258    0.0104 C.3     1  UNL1       -0.0507
      2 C           0.0021   -0.0041    0.0020 C.3     1  UNL1        0.0177
      3 N          -1.3723   -0.5112    0.0124 N.3     1  UNL1       -0.1771
      4 C          -2.1099   -0.6542   -1.2453 C.3     1  UNL1        0.0177
      5 C          -1.7727   -2.0031   -1.8836 C.3     1  UNL1       -0.0507
      6 S          -2.0922   -0.9227    1.4458 S.O2    1  UNL1        0.0608
      7 O          -3.1196   -1.8512    1.1269 O.2     1  UNL1       -0.1528
      8 O          -1.0393   -1.2108    2.3555 O.2     1  UNL1       -0.1528
      9 C          -2.8978    0.5199    2.0580 C.ar    1  UNL1        0.1055
     10 C          -2.2156    1.3954    2.8820 C.ar    1  UNL1       -0.0351
     11 C          -2.8476    2.5271    3.3622 C.ar    1  UNL1       -0.0567
     12 C          -4.1616    2.7836    3.0181 C.ar    1  UNL1       -0.0468
     13 C          -4.8508    4.0171    3.5421 C.3     1  UNL1       -0.0194
     14 C          -4.6371    5.1747    2.5647 C.3     1  UNL1        0.0279
     15 C          -5.3263    6.4082    3.0886 C.2     1  UNL1        0.2134
     16 O          -5.9290    6.3657    4.1402 O.2     1  UNL1       -0.2758
     17 N          -5.2728    7.5587    2.3886 N.am    1  UNL1       -0.3141
     18 C          -5.9428    8.7579    2.8979 C.3     1  UNL1        0.0244
     19 C          -5.7291    9.9154    1.9205 C.3     1  UNL1        0.0146
     20 N          -6.4009   11.1179    2.4313 N.3     1  UNL1       -0.2965
     21 C          -7.7633   10.8065    2.8877 C.3     1  UNL1        0.0225
     22 C          -8.4037   12.0715    3.4654 C.3     1  UNL1        0.0604
     23 O          -8.3869   13.1032    2.4751 O.3     1  UNL1       -0.3772
     24 C          -7.0756   13.4322    2.0086 C.3     1  UNL1        0.0604
     25 C          -6.4218   12.1810    1.4161 C.3     1  UNL1        0.0225
     26 C          -4.8434    1.9088    2.1930 C.ar    1  UNL1       -0.0567
     27 C          -4.2102    0.7790    1.7096 C.ar    1  UNL1       -0.0351
     28 H           1.0039    1.9031    0.0027 H       1  UNL1        0.0243
     29 H          -0.5459    1.8868   -0.8726 H       1  UNL1        0.0243
     30 H          -0.5289    1.8773    0.9072 H       1  UNL1        0.0243
     31 H           0.5123   -0.3556   -0.8948 H       1  UNL1        0.0441
     32 H           0.5293   -0.3651    0.8851 H       1  UNL1        0.0441
     33 H          -3.1804   -0.6037   -1.0465 H       1  UNL1        0.0441
     34 H          -1.8283    0.1500   -1.9251 H       1  UNL1        0.0441
     35 H          -0.7022   -2.0536   -2.0825 H       1  UNL1        0.0243
     36 H          -2.0544   -2.8073   -1.2038 H       1  UNL1        0.0243
     37 H          -2.3215   -2.1096   -2.8194 H       1  UNL1        0.0243
     38 H          -1.1890    1.1950    3.1509 H       1  UNL1        0.0637
     39 H          -2.3149    3.2108    4.0066 H       1  UNL1        0.0621
     40 H          -5.9180    3.8210    3.6452 H       1  UNL1        0.0318
     41 H          -4.4342    4.2808    4.5142 H       1  UNL1        0.0318
     42 H          -3.5699    5.3709    2.4615 H       1  UNL1        0.0361
     43 H          -5.0537    4.9110    1.5925 H       1  UNL1        0.0361
     44 H          -4.7908    7.5927    1.5475 H       1  UNL1        0.1487
     45 H          -7.0100    8.5617    3.0011 H       1  UNL1        0.0474
     46 H          -5.5262    9.0216    3.8701 H       1  UNL1        0.0474
     47 H          -4.6619   10.1116    1.8174 H       1  UNL1        0.0442
     48 H          -6.1457    9.6517    0.9484 H       1  UNL1        0.0442
     49 H          -8.3567   10.4502    2.0456 H       1  UNL1        0.0449
     50 H          -7.7221   10.0355    3.6570 H       1  UNL1        0.0449
     51 H          -9.4335   11.8594    3.7526 H       1  UNL1        0.0572
     52 H          -7.8409   12.3974    4.3401 H       1  UNL1        0.0572
     53 H          -7.1450   14.2042    1.2423 H       1  UNL1        0.0572
     54 H          -6.4742   13.7976    2.8410 H       1  UNL1        0.0572
     55 H          -5.4013   12.4133    1.1113 H       1  UNL1        0.0449
     56 H          -6.9937   11.8466    0.5506 H       1  UNL1        0.0449
     57 H          -5.8699    2.1094    1.9238 H       1  UNL1        0.0621
     58 H          -4.7428    0.0956    1.0650 H       1  UNL1        0.0637
@<TRIPOS>BOND
     1     1     2    1
     2     1    28    1
     3     1    29    1
     4     1    30    1
     5     2     3    1
     6     2    31    1
     7     2    32    1
     8     3     4    1
     9     6     3    1
    10     4     5    1
    11     4    33    1
    12     4    34    1
    13     5    35    1
    14     5    36    1
    15     5    37    1
    16     6     7    2
    17     6     8    2
    18     6     9    1
    19     9    27   ar
    20     9    10   ar
    21    10    11   ar
    22    10    38    1
    23    11    12   ar
    24    11    39    1
    25    12    13    1
    26    12    26   ar
    27    13    14    1
    28    13    40    1
    29    13    41    1
    30    14    15    1
    31    14    42    1
    32    14    43    1
    33    15    16    2
    34    15    17   am
    35    17    18    1
    36    17    44    1
    37    18    19    1
    38    18    45    1
    39    18    46    1
    40    19    20    1
    41    19    47    1
    42    19    48    1
    43    20    25    1
    44    20    21    1
    45    21    22    1
    46    21    49    1
    47    21    50    1
    48    22    23    1
    49    22    51    1
    50    22    52    1
    51    23    24    1
    52    24    25    1
    53    24    53    1
    54    24    54    1
    55    25    55    1
    56    25    56    1
    57    26    27   ar
    58    26    57    1
    59    27    58    1
