@<TRIPOS>MOLECULE
ZINC000005554948
 56 57 0 0 0
SMALL
GASTEIGER

@<TRIPOS>ATOM
      1 C          -0.2414    1.7506   -0.6487 C.3     1  UNL1       -0.0641
      2 C          -0.1409    0.2370   -0.4493 C.3     1  UNL1       -0.0414
      3 C          -1.5465   -0.3574   -0.3402 C.3     1  UNL1        0.0203
      4 N          -1.4504   -1.8067   -0.1493 N.3     1  UNL1       -0.1766
      5 C          -1.2652   -2.3577    1.1955 C.3     1  UNL1        0.0203
      6 C          -2.6266   -2.5059    1.8778 C.3     1  UNL1       -0.0414
      7 C          -2.4333   -3.0813    3.2822 C.3     1  UNL1       -0.0641
      8 S          -1.5509   -2.8222   -1.4535 S.O2    1  UNL1        0.0609
      9 O          -1.9768   -4.0809   -0.9501 O.2     1  UNL1       -0.1528
     10 O          -2.2539   -2.1106   -2.4628 O.2     1  UNL1       -0.1528
     11 C           0.0870   -3.0569   -2.0593 C.ar    1  UNL1        0.1056
     12 C           0.5975   -2.2007   -3.0176 C.ar    1  UNL1       -0.0336
     13 C           1.8808   -2.3823   -3.4948 C.ar    1  UNL1       -0.0385
     14 C           2.6587   -3.4258   -3.0108 C.ar    1  UNL1        0.0366
     15 N           3.9597   -3.6122   -3.4919 N.am    1  UNL1       -0.2511
     16 C           4.7049   -2.5477   -3.8495 C.2     1  UNL1        0.4052
     17 O           4.2853   -1.4225   -3.6643 O.2     1  UNL1       -0.2261
     18 O           5.9145   -2.7311   -4.4119 O.3     1  UNL1       -0.4390
     19 C           6.6618   -1.5392   -4.7716 C.3     1  UNL1        0.1614
     20 H           5.9676   -0.7370   -5.0224 H       1  UNL1        0.0817
     21 C           7.5339   -1.1083   -3.5907 C.3     1  UNL1       -0.0112
     22 C           6.6395   -0.6882   -2.4226 C.3     1  UNL1       -0.0615
     23 C           7.5379   -1.8356   -5.9614 C.ar    1  UNL1        0.1453
     24 C           7.8412   -0.9742   -6.9490 C.ar    1  UNL1       -0.0170
     25 C           8.6834   -1.6647   -7.8505 C.ar    1  UNL1       -0.0235
     26 C           8.8445   -2.9067   -7.3599 C.ar    1  UNL1        0.0923
     27 O           8.1530   -3.0027   -6.2125 O.2     1  UNL1       -0.4641
     28 C           2.1433   -4.2836   -2.0481 C.ar    1  UNL1       -0.0385
     29 C           0.8611   -4.0935   -1.5712 C.ar    1  UNL1       -0.0336
     30 H           0.7600    2.1741   -0.7264 H       1  UNL1        0.0230
     31 H          -0.7966    1.9606   -1.5628 H       1  UNL1        0.0230
     32 H          -0.7590    2.1955    0.2012 H       1  UNL1        0.0230
     33 H           0.3767   -0.2079   -1.2991 H       1  UNL1        0.0275
     34 H           0.4143    0.0270    0.4649 H       1  UNL1        0.0275
     35 H          -2.0642    0.0875    0.5097 H       1  UNL1        0.0444
     36 H          -2.1018   -0.1474   -1.2543 H       1  UNL1        0.0444
     37 H          -0.7859   -3.3341    1.1253 H       1  UNL1        0.0444
     38 H          -0.6370   -1.6857    1.7802 H       1  UNL1        0.0444
     39 H          -3.1060   -1.5295    1.9480 H       1  UNL1        0.0275
     40 H          -3.2549   -3.1779    1.2931 H       1  UNL1        0.0275
     41 H          -1.8051   -2.4093    3.8669 H       1  UNL1        0.0230
     42 H          -3.4032   -3.1869    3.7683 H       1  UNL1        0.0230
     43 H          -1.9539   -4.0577    3.2120 H       1  UNL1        0.0230
     44 H          -0.0081   -1.3893   -3.3936 H       1  UNL1        0.0638
     45 H           2.2787   -1.7137   -4.2438 H       1  UNL1        0.0637
     46 H           4.3250   -4.5076   -3.5680 H       1  UNL1        0.1582
     47 H           8.1661   -1.9412   -3.2829 H       1  UNL1        0.0303
     48 H           8.1604   -0.2678   -3.8893 H       1  UNL1        0.0303
     49 H           6.0131   -1.5287   -2.1240 H       1  UNL1        0.0231
     50 H           7.2609   -0.3812   -1.5813 H       1  UNL1        0.0231
     51 H           6.0074    0.1448   -2.7304 H       1  UNL1        0.0231
     52 H           7.5053    0.0485   -7.0368 H       1  UNL1        0.0653
     53 H           9.1145   -1.2706   -8.7590 H       1  UNL1        0.0649
     54 H           9.4332   -3.6923   -7.8101 H       1  UNL1        0.1029
     55 H           2.7459   -5.0961   -1.6697 H       1  UNL1        0.0637
     56 H           0.4598   -4.7601   -0.8222 H       1  UNL1        0.0638
@<TRIPOS>BOND
     1     1     2    1
     2     1    30    1
     3     1    31    1
     4     1    32    1
     5     2     3    1
     6     2    33    1
     7     2    34    1
     8     3     4    1
     9     3    35    1
    10     3    36    1
    11     4     5    1
    12     8     4    1
    13     5     6    1
    14     5    37    1
    15     5    38    1
    16     6     7    1
    17     6    39    1
    18     6    40    1
    19     7    41    1
    20     7    42    1
    21     7    43    1
    22     8     9    2
    23     8    10    2
    24     8    11    1
    25    11    29   ar
    26    11    12   ar
    27    12    13   ar
    28    12    44    1
    29    13    14   ar
    30    13    45    1
    31    14    15    1
    32    14    28   ar
    33    15    16   am
    34    15    46    1
    35    16    17    2
    36    16    18    1
    37    18    19    1
    38    19    20    1
    39    19    21    1
    40    19    23    1
    41    21    22    1
    42    21    47    1
    43    21    48    1
    44    22    49    1
    45    22    50    1
    46    22    51    1
    47    23    27   ar
    48    23    24   ar
    49    24    25   ar
    50    24    52    1
    51    25    26   ar
    52    25    53    1
    53    26    27   ar
    54    26    54    1
    55    28    29   ar
    56    28    55    1
    57    29    56    1
