@<TRIPOS>MOLECULE
ZINC000012982507
 37 39 0 0 0
SMALL
GASTEIGER

@<TRIPOS>ATOM
      1 C          -0.0187    1.5258    0.0104 C.3     1  UNL1       -0.0437
      2 C           0.0021   -0.0041    0.0020 C.3     1  UNL1        0.0547
      3 H          -1.0184   -0.3871    0.0097 H       1  UNL1        0.0527
      4 C           0.7318   -0.5038   -1.2396 C.ar    1  UNL1       -0.0187
      5 C           1.9558   -1.0623   -1.1866 C.ar    1  UNL1       -0.0042
      6 C           2.7596   -1.2796    0.0778 C.3     1  UNL1       -0.0066
      7 C           2.1959   -0.3881    1.1887 C.3     1  UNL1        0.0256
      8 N           0.7284   -0.4986    1.1802 N.3     1  UNL1       -0.1691
      9 S          -0.0814   -1.1625    2.4631 S.O2    1  UNL1        0.0614
     10 O          -1.3258   -1.6250    1.9563 O.2     1  UNL1       -0.1528
     11 O           0.8473   -2.0055    3.1310 O.2     1  UNL1       -0.1528
     12 C          -0.4550    0.1487    3.5792 C.ar    1  UNL1        0.1055
     13 C           0.4418    0.4845    4.5761 C.ar    1  UNL1       -0.0348
     14 C           0.1487    1.5133    5.4517 C.ar    1  UNL1       -0.0483
     15 C          -1.0411    2.2065    5.3300 C.ar    1  UNL1        0.0549
     16 C          -1.3609    3.3277    6.2849 C.3     1  UNL1        0.4174
     17 F          -0.8762    4.5337    5.7672 F       1  UNL1       -0.1659
     18 F          -2.7469    3.4160    6.4530 F       1  UNL1       -0.1659
     19 F          -0.7563    3.0744    7.5208 F       1  UNL1       -0.1659
     20 C          -1.9373    1.8716    4.3323 C.ar    1  UNL1       -0.0483
     21 C          -1.6425    0.8454    3.4543 C.ar    1  UNL1       -0.0348
     22 S           2.4810   -1.5041   -2.8063 S.2     1  UNL1       -0.1012
     23 C           0.9794   -0.9040   -3.4939 C.ar    1  UNL1       -0.0237
     24 C           0.2047   -0.4270   -2.5249 C.ar    1  UNL1       -0.0497
     25 H           1.0039    1.9031    0.0027 H       1  UNL1        0.0248
     26 H          -0.5459    1.8868   -0.8726 H       1  UNL1        0.0248
     27 H          -0.5289    1.8773    0.9072 H       1  UNL1        0.0248
     28 H           2.6901   -2.3249    0.3788 H       1  UNL1        0.0331
     29 H           3.8025   -1.0200   -0.1040 H       1  UNL1        0.0331
     30 H           2.5818   -0.7175    2.1535 H       1  UNL1        0.0447
     31 H           2.4859    0.6472    1.0097 H       1  UNL1        0.0447
     32 H           1.3713   -0.0571    4.6711 H       1  UNL1        0.0637
     33 H           0.8490    1.7752    6.2310 H       1  UNL1        0.0624
     34 H          -2.8667    2.4135    4.2370 H       1  UNL1        0.0624
     35 H          -2.3426    0.5838    2.6748 H       1  UNL1        0.0637
     36 H           0.7251   -0.9200   -4.5434 H       1  UNL1        0.0693
     37 H          -0.7706   -0.0074   -2.7223 H       1  UNL1        0.0626
@<TRIPOS>BOND
     1     1     2    1
     2     1    25    1
     3     1    26    1
     4     1    27    1
     5     2     3    1
     6     2     8    1
     7     2     4    1
     8     4    24   ar
     9     4     5   ar
    10     5     6    1
    11     5    22   ar
    12     6     7    1
    13     6    28    1
    14     6    29    1
    15     7     8    1
    16     7    30    1
    17     7    31    1
    18     9     8    1
    19     9    10    2
    20     9    11    2
    21     9    12    1
    22    12    21   ar
    23    12    13   ar
    24    13    14   ar
    25    13    32    1
    26    14    15   ar
    27    14    33    1
    28    15    16    1
    29    15    20   ar
    30    16    17    1
    31    16    18    1
    32    16    19    1
    33    20    21   ar
    34    20    34    1
    35    21    35    1
    36    22    23   ar
    37    23    24   ar
    38    23    36    1
    39    24    37    1
