@<TRIPOS>MOLECULE
ZINC000033633475
 54 55 0 0 0
SMALL
GASTEIGER

@<TRIPOS>ATOM
      1 C          -0.0173    1.4248    0.0099 C.3     1  UNL1        0.0364
      2 O           0.0021   -0.0041    0.0020 O.3     1  UNL1       -0.3829
      3 C           0.6518   -0.5703   -1.1379 C.3     1  UNL1        0.0487
      4 C           0.6131   -2.0967   -1.0411 C.3     1  UNL1       -0.0139
      5 C           1.3087   -2.7029   -2.2615 C.3     1  UNL1        0.0137
      6 N           1.2717   -4.1645   -2.1688 N.am    1  UNL1       -0.3141
      7 C           1.8279   -4.9157   -3.1398 C.2     1  UNL1        0.2288
      8 O           2.3592   -4.3816   -4.0903 O.2     1  UNL1       -0.2743
      9 C           1.7898   -6.4192   -3.0444 C.3     1  UNL1        0.0971
     10 N           2.4559   -6.9996   -4.2130 N.3     1  UNL1       -0.1635
     11 C           3.9101   -7.1769   -4.2144 C.3     1  UNL1        0.0460
     12 C           4.2576   -8.4830   -3.5479 C.ar    1  UNL1       -0.0317
     13 C           4.4804   -8.5254   -2.1843 C.ar    1  UNL1       -0.0573
     14 C           4.7992   -9.7236   -1.5730 C.ar    1  UNL1       -0.0615
     15 C           4.8947  -10.8794   -2.3252 C.ar    1  UNL1       -0.0617
     16 C           4.6711  -10.8372   -3.6886 C.ar    1  UNL1       -0.0615
     17 C           4.3481   -9.6398   -4.2993 C.ar    1  UNL1       -0.0573
     18 S           1.5650   -7.4555   -5.5324 S.O2    1  UNL1        0.0616
     19 O           2.3330   -8.4366   -6.2157 O.2     1  UNL1       -0.1528
     20 O           0.2444   -7.6903   -5.0632 O.2     1  UNL1       -0.1528
     21 C           1.4712   -6.0611   -6.6055 C.ar    1  UNL1        0.1071
     22 C           0.4367   -5.1543   -6.4696 C.ar    1  UNL1       -0.0318
     23 C           0.3606   -4.0594   -7.3094 C.ar    1  UNL1       -0.0166
     24 C           1.3232   -3.8703   -8.2894 C.ar    1  UNL1        0.1384
     25 O           1.2507   -2.7939   -9.1162 O.3     1  UNL1       -0.4936
     26 C           0.1555   -1.8972   -8.9194 C.3     1  UNL1        0.0789
     27 C           2.3616   -4.7822   -8.4243 C.ar    1  UNL1        0.0844
     28 CL          3.5690   -4.5493   -9.6498 Cl      1  UNL1       -0.0797
     29 C           2.4358   -5.8727   -7.5783 C.ar    1  UNL1       -0.0134
     30 H           1.0053    1.8021    0.0021 H       1  UNL1        0.0523
     31 H          -0.5445    1.7859   -0.8732 H       1  UNL1        0.0523
     32 H          -0.5275    1.7763    0.9067 H       1  UNL1        0.0523
     33 H           0.1385   -0.2506   -2.0447 H       1  UNL1        0.0560
     34 H           1.6883   -0.2344   -1.1694 H       1  UNL1        0.0560
     35 H           1.1264   -2.4164   -0.1342 H       1  UNL1        0.0302
     36 H          -0.4234   -2.4326   -1.0095 H       1  UNL1        0.0302
     37 H           0.7954   -2.3833   -3.1684 H       1  UNL1        0.0463
     38 H           2.3452   -2.3671   -2.2930 H       1  UNL1        0.0463
     39 H           0.8468   -4.5917   -1.4086 H       1  UNL1        0.1487
     40 H           2.3031   -6.7389   -2.1376 H       1  UNL1        0.0539
     41 H           0.7533   -6.7551   -3.0129 H       1  UNL1        0.0539
     42 H           4.2742   -7.1850   -5.2418 H       1  UNL1        0.0493
     43 H           4.3767   -6.3558   -3.6701 H       1  UNL1        0.0493
     44 H           4.4058   -7.6224   -1.5966 H       1  UNL1        0.0621
     45 H           4.9739   -9.7565   -0.5077 H       1  UNL1        0.0618
     46 H           5.1445  -11.8153   -1.8476 H       1  UNL1        0.0618
     47 H           4.7460  -11.7401   -4.2764 H       1  UNL1        0.0618
     48 H           4.1733   -9.6068   -5.3646 H       1  UNL1        0.0621
     49 H          -0.3132   -5.3019   -5.7065 H       1  UNL1        0.0638
     50 H          -0.4482   -3.3518   -7.2027 H       1  UNL1        0.0655
     51 H          -0.7830   -2.4347   -9.0552 H       1  UNL1        0.0660
     52 H           0.1974   -1.4887   -7.9097 H       1  UNL1        0.0660
     53 H           0.2168   -1.0844   -9.6430 H       1  UNL1        0.0660
     54 H           3.2433   -6.5823   -7.6822 H       1  UNL1        0.0653
@<TRIPOS>BOND
     1     1     2    1
     2     1    30    1
     3     1    31    1
     4     1    32    1
     5     2     3    1
     6     3     4    1
     7     3    33    1
     8     3    34    1
     9     4     5    1
    10     4    35    1
    11     4    36    1
    12     5     6    1
    13     5    37    1
    14     5    38    1
    15     6     7   am
    16     6    39    1
    17     7     8    2
    18     7     9    1
    19     9    10    1
    20     9    40    1
    21     9    41    1
    22    10    11    1
    23    18    10    1
    24    11    12    1
    25    11    42    1
    26    11    43    1
    27    12    17   ar
    28    12    13   ar
    29    13    14   ar
    30    13    44    1
    31    14    15   ar
    32    14    45    1
    33    15    16   ar
    34    15    46    1
    35    16    17   ar
    36    16    47    1
    37    17    48    1
    38    18    19    2
    39    18    20    2
    40    18    21    1
    41    21    29   ar
    42    21    22   ar
    43    22    23   ar
    44    22    49    1
    45    23    24   ar
    46    23    50    1
    47    24    25    1
    48    24    27   ar
    49    25    26    1
    50    26    51    1
    51    26    52    1
    52    26    53    1
    53    27    28    1
    54    27    29   ar
    55    29    54    1
