@<TRIPOS>MOLECULE
ZINC000026753615
 52 53 0 0 0
SMALL
GASTEIGER

@<TRIPOS>ATOM
      1 C          -0.5065    1.5158   -0.4427 C.3     1  UNL1       -0.0605
      2 C          -0.4873   -0.0140   -0.4650 C.3     1  UNL1       -0.0197
      3 C          -1.7679   -0.5305   -1.1239 C.3     1  UNL1       -0.0605
      4 C           0.7266   -0.4972   -1.2611 C.3     1  UNL1        0.1033
      5 H           1.6321   -0.0515   -0.8493 H       1  UNL1        0.0598
      6 N           0.5807   -0.0993   -2.6635 N.am    1  UNL1       -0.2880
      7 C           0.9716    1.1281   -3.0599 C.2     1  UNL1        0.2977
      8 N           0.8374    1.4942   -4.3500 N.am    1  UNL1       -0.3133
      9 O           1.4453    1.9052   -2.2536 O.2     1  UNL1       -0.2531
     10 C           0.8204   -1.9986   -1.1721 C.2     1  UNL1        0.2363
     11 O           0.3779   -2.6880   -2.0665 O.2     1  UNL1       -0.2736
     12 N           1.3961   -2.5754   -0.0986 N.am    1  UNL1       -0.2974
     13 C           1.8241   -1.7618    1.0480 C.3     1  UNL1        0.0292
     14 C           1.1604   -2.3140    2.3157 C.3     1  UNL1        0.0363
     15 N           1.3709   -3.7678    2.3608 N.3     1  UNL1       -0.1736
     16 S           2.0772   -4.4765    3.6803 S.O2    1  UNL1        0.0609
     17 O           2.6313   -5.7043    3.2278 O.2     1  UNL1       -0.1528
     18 O           2.8458   -3.4645    4.3161 O.2     1  UNL1       -0.1528
     19 C           0.7843   -4.8973    4.8010 C.ar    1  UNL1        0.1055
     20 C           0.3760   -3.9874    5.7582 C.ar    1  UNL1       -0.0348
     21 C          -0.6383   -4.3175    6.6374 C.ar    1  UNL1       -0.0483
     22 C          -1.2447   -5.5572    6.5591 C.ar    1  UNL1        0.0549
     23 C          -2.3502   -5.9173    7.5180 C.3     1  UNL1        0.4174
     24 F          -3.5820   -5.5403    6.9722 F       1  UNL1       -0.1659
     25 F          -2.3422   -7.2983    7.7415 F       1  UNL1       -0.1659
     26 F          -2.1526   -5.2475    8.7302 F       1  UNL1       -0.1659
     27 C          -0.8374   -6.4666    5.6010 C.ar    1  UNL1       -0.0483
     28 C           0.1744   -6.1351    4.7193 C.ar    1  UNL1       -0.0348
     29 C           0.9429   -4.5813    1.2142 C.3     1  UNL1        0.0363
     30 C           1.6015   -4.0298   -0.0511 C.3     1  UNL1        0.0292
     31 H           0.4059    1.8838    0.0268 H       1  UNL1        0.0233
     32 H          -0.5677    1.8933   -1.4634 H       1  UNL1        0.0233
     33 H          -1.3713    1.8600    0.1245 H       1  UNL1        0.0233
     34 H          -0.4261   -0.3915    0.5557 H       1  UNL1        0.0318
     35 H          -1.8291   -0.1530   -2.1446 H       1  UNL1        0.0233
     36 H          -1.7542   -1.6203   -1.1398 H       1  UNL1        0.0233
     37 H          -2.6327   -0.1862   -0.5567 H       1  UNL1        0.0233
     38 H           0.2028   -0.7192   -3.3067 H       1  UNL1        0.1510
     39 H           0.4595    0.8742   -4.9933 H       1  UNL1        0.1465
     40 H           1.1187    2.3775   -4.6353 H       1  UNL1        0.1465
     41 H           2.9081   -1.8148    1.1499 H       1  UNL1        0.0478
     42 H           1.5186   -0.7266    0.8964 H       1  UNL1        0.0478
     43 H           1.6096   -1.8518    3.1947 H       1  UNL1        0.0459
     44 H           0.0920   -2.0996    2.2923 H       1  UNL1        0.0459
     45 H           0.8498   -3.0188    5.8194 H       1  UNL1        0.0637
     46 H          -0.9568   -3.6069    7.3858 H       1  UNL1        0.0624
     47 H          -1.3114   -7.4351    5.5396 H       1  UNL1        0.0624
     48 H           0.4926   -6.8456    3.9708 H       1  UNL1        0.0637
     49 H           1.2484   -5.6166    1.3658 H       1  UNL1        0.0459
     50 H          -0.1411   -4.5284    1.1123 H       1  UNL1        0.0459
     51 H           1.1514   -4.4928   -0.9293 H       1  UNL1        0.0478
     52 H           2.6703   -4.2425   -0.0296 H       1  UNL1        0.0478
@<TRIPOS>BOND
     1     1     2    1
     2     1    31    1
     3     1    32    1
     4     1    33    1
     5     2     3    1
     6     2     4    1
     7     2    34    1
     8     3    35    1
     9     3    36    1
    10     3    37    1
    11     4     5    1
    12     4     6    1
    13     4    10    1
    14     6     7   am
    15     6    38    1
    16     7     8   am
    17     7     9    2
    18     8    39    1
    19     8    40    1
    20    10    11    2
    21    10    12   am
    22    12    30    1
    23    12    13    1
    24    13    14    1
    25    13    41    1
    26    13    42    1
    27    14    15    1
    28    14    43    1
    29    14    44    1
    30    16    15    1
    31    15    29    1
    32    16    17    2
    33    16    18    2
    34    16    19    1
    35    19    28   ar
    36    19    20   ar
    37    20    21   ar
    38    20    45    1
    39    21    22   ar
    40    21    46    1
    41    22    23    1
    42    22    27   ar
    43    23    24    1
    44    23    25    1
    45    23    26    1
    46    27    28   ar
    47    27    47    1
    48    28    48    1
    49    29    30    1
    50    29    49    1
    51    29    50    1
    52    30    51    1
    53    30    52    1
