@<TRIPOS>MOLECULE
ZINC000016647555
 53 54 0 0 0
SMALL
GASTEIGER

@<TRIPOS>ATOM
      1 C          -0.0187    1.5258    0.0104 C.3     1  UNL1       -0.0507
      2 C           0.0021   -0.0041    0.0020 C.3     1  UNL1        0.0177
      3 N          -1.3723   -0.5112    0.0124 N.3     1  UNL1       -0.1771
      4 C          -2.1099   -0.6542   -1.2453 C.3     1  UNL1        0.0177
      5 C          -1.7727   -2.0031   -1.8836 C.3     1  UNL1       -0.0507
      6 S          -2.0922   -0.9227    1.4458 S.O2    1  UNL1        0.0608
      7 O          -3.1196   -1.8512    1.1269 O.2     1  UNL1       -0.1528
      8 O          -1.0393   -1.2108    2.3555 O.2     1  UNL1       -0.1528
      9 C          -2.8978    0.5199    2.0580 C.ar    1  UNL1        0.1055
     10 C          -2.2156    1.3954    2.8820 C.ar    1  UNL1       -0.0351
     11 C          -2.8476    2.5271    3.3622 C.ar    1  UNL1       -0.0567
     12 C          -4.1616    2.7836    3.0181 C.ar    1  UNL1       -0.0468
     13 C          -4.8508    4.0171    3.5421 C.3     1  UNL1       -0.0194
     14 C          -4.6371    5.1747    2.5647 C.3     1  UNL1        0.0279
     15 C          -5.3263    6.4082    3.0886 C.2     1  UNL1        0.2134
     16 O          -5.9290    6.3657    4.1402 O.2     1  UNL1       -0.2758
     17 N          -5.2728    7.5587    2.3886 N.am    1  UNL1       -0.3128
     18 C          -5.9428    8.7579    2.8979 C.3     1  UNL1        0.0379
     19 C          -5.7291    9.9154    1.9205 C.3     1  UNL1        0.0742
     20 H          -6.1303    9.6605    0.9396 H       1  UNL1        0.0611
     21 C          -6.4010   11.2041    2.4580 C.3     1  UNL1       -0.0231
     22 C          -5.5620   12.2957    1.7394 C.3     1  UNL1       -0.0271
     23 C          -4.1610   11.6493    1.6850 C.3     1  UNL1        0.0482
     24 O          -4.3316   10.2322    1.8207 O.3     1  UNL1       -0.3750
     25 C          -4.8434    1.9088    2.1930 C.ar    1  UNL1       -0.0567
     26 C          -4.2102    0.7790    1.7096 C.ar    1  UNL1       -0.0351
     27 H           1.0039    1.9031    0.0027 H       1  UNL1        0.0243
     28 H          -0.5459    1.8868   -0.8726 H       1  UNL1        0.0243
     29 H          -0.5289    1.8773    0.9072 H       1  UNL1        0.0243
     30 H           0.5123   -0.3556   -0.8948 H       1  UNL1        0.0441
     31 H           0.5293   -0.3651    0.8851 H       1  UNL1        0.0441
     32 H          -3.1804   -0.6037   -1.0465 H       1  UNL1        0.0441
     33 H          -1.8283    0.1500   -1.9251 H       1  UNL1        0.0441
     34 H          -2.3215   -2.1096   -2.8194 H       1  UNL1        0.0243
     35 H          -0.7022   -2.0536   -2.0825 H       1  UNL1        0.0243
     36 H          -2.0544   -2.8073   -1.2038 H       1  UNL1        0.0243
     37 H          -1.1890    1.1950    3.1509 H       1  UNL1        0.0637
     38 H          -2.3149    3.2108    4.0066 H       1  UNL1        0.0621
     39 H          -5.9180    3.8210    3.6452 H       1  UNL1        0.0318
     40 H          -4.4342    4.2808    4.5142 H       1  UNL1        0.0318
     41 H          -3.5699    5.3709    2.4615 H       1  UNL1        0.0361
     42 H          -5.0537    4.9110    1.5925 H       1  UNL1        0.0361
     43 H          -4.7908    7.5927    1.5475 H       1  UNL1        0.1488
     44 H          -7.0100    8.5617    3.0011 H       1  UNL1        0.0487
     45 H          -5.5262    9.0216    3.8701 H       1  UNL1        0.0487
     46 H          -7.4484   11.2544    2.1606 H       1  UNL1        0.0291
     47 H          -6.2979   11.2786    3.5406 H       1  UNL1        0.0291
     48 H          -5.9435   12.4797    0.7350 H       1  UNL1        0.0288
     49 H          -5.5421   13.2163    2.3226 H       1  UNL1        0.0288
     50 H          -3.6872   11.8734    0.7293 H       1  UNL1        0.0560
     51 H          -3.5468   12.0287    2.5016 H       1  UNL1        0.0560
     52 H          -5.8699    2.1094    1.9238 H       1  UNL1        0.0621
     53 H          -4.7428    0.0956    1.0650 H       1  UNL1        0.0637
@<TRIPOS>BOND
     1     1     2    1
     2     1    27    1
     3     1    28    1
     4     1    29    1
     5     2     3    1
     6     2    30    1
     7     2    31    1
     8     3     4    1
     9     6     3    1
    10     4     5    1
    11     4    32    1
    12     4    33    1
    13     5    34    1
    14     5    35    1
    15     5    36    1
    16     6     7    2
    17     6     8    2
    18     6     9    1
    19     9    26   ar
    20     9    10   ar
    21    10    11   ar
    22    10    37    1
    23    11    12   ar
    24    11    38    1
    25    12    13    1
    26    12    25   ar
    27    13    14    1
    28    13    39    1
    29    13    40    1
    30    14    15    1
    31    14    41    1
    32    14    42    1
    33    15    16    2
    34    15    17   am
    35    17    18    1
    36    17    43    1
    37    18    19    1
    38    18    44    1
    39    18    45    1
    40    19    20    1
    41    19    24    1
    42    19    21    1
    43    21    22    1
    44    21    46    1
    45    21    47    1
    46    22    23    1
    47    22    48    1
    48    22    49    1
    49    23    24    1
    50    23    50    1
    51    23    51    1
    52    25    26   ar
    53    25    52    1
    54    26    53    1
