@<TRIPOS>MOLECULE
ZINC000065363829
 44 45 0 0 0
SMALL
GASTEIGER

@<TRIPOS>ATOM
      1 C           0.2919    1.1251   -0.7080 C.3     1  UNL1       -0.0362
      2 C           0.2301   -0.3559   -0.3289 C.3     1  UNL1        0.1190
      3 H          -0.8097   -0.6819   -0.3057 H       1  UNL1        0.0611
      4 C           0.9884   -1.1672   -1.3477 C.2     1  UNL1        0.2377
      5 O           2.0938   -1.5911   -1.0844 O.2     1  UNL1       -0.2735
      6 N           0.4381   -1.4218   -2.5513 N.am    1  UNL1       -0.2955
      7 C          -0.9387   -1.0030   -2.8586 C.3     1  UNL1        0.0382
      8 C          -0.9273   -0.2437   -4.1903 C.3     1  UNL1        0.0635
      9 O          -0.2697   -1.0388   -5.1798 O.3     1  UNL1       -0.3767
     10 C           1.1039   -1.3122   -4.8929 C.3     1  UNL1        0.0635
     11 C           1.1984   -2.1213   -3.5992 C.3     1  UNL1        0.0382
     12 N           0.8314   -0.5470    0.9932 N.pl3   1  UNL1       -0.1960
     13 C           2.1263   -0.0876    1.2446 C.ar    1  UNL1        0.0522
     14 C           2.3751    1.2755    1.3392 C.ar    1  UNL1       -0.0390
     15 C           3.6567    1.7264    1.5883 C.ar    1  UNL1       -0.0594
     16 C           4.6913    0.8224    1.7435 C.ar    1  UNL1       -0.0500
     17 C           4.4471   -0.5357    1.6495 C.ar    1  UNL1        0.0566
     18 C           5.5779   -1.5172    1.8194 C.3     1  UNL1        0.4175
     19 F           6.7672   -0.8212    2.0611 F       1  UNL1       -0.1659
     20 F           5.3039   -2.3618    2.9004 F       1  UNL1       -0.1659
     21 F           5.7125   -2.2798    0.6542 F       1  UNL1       -0.1659
     22 C           3.1673   -0.9934    1.4063 C.ar    1  UNL1       -0.0274
     23 S          -0.0241   -1.3078    2.1898 S.O2    1  UNL1        0.0432
     24 C           0.4565   -3.0515    2.0512 C.3     1  UNL1        0.0738
     25 O           0.4807   -0.7455    3.3932 O.2     1  UNL1       -0.1552
     26 O          -1.3833   -1.1337    1.8136 O.2     1  UNL1       -0.1552
     27 H           1.3323    1.4489   -0.7398 H       1  UNL1        0.0253
     28 H          -0.1634    1.2687   -1.6879 H       1  UNL1        0.0253
     29 H          -0.2490    1.7129    0.0336 H       1  UNL1        0.0253
     30 H          -1.5795   -1.8809   -2.9421 H       1  UNL1        0.0487
     31 H          -1.3094   -0.3512   -2.0676 H       1  UNL1        0.0487
     32 H          -1.9518   -0.0450   -4.5049 H       1  UNL1        0.0575
     33 H          -0.3940    0.6989   -4.0673 H       1  UNL1        0.0575
     34 H           1.5407   -1.8822   -5.7130 H       1  UNL1        0.0575
     35 H           1.6445   -0.3735   -4.7725 H       1  UNL1        0.0575
     36 H           2.2422   -2.2124   -3.2986 H       1  UNL1        0.0487
     37 H           0.7727   -3.1126   -3.7542 H       1  UNL1        0.0487
     38 H           1.5674    1.9822    1.2177 H       1  UNL1        0.0636
     39 H           3.8509    2.7863    1.6616 H       1  UNL1        0.0618
     40 H           5.6924    1.1776    1.9382 H       1  UNL1        0.0623
     41 H           2.9773   -2.0540    1.3330 H       1  UNL1        0.0642
     42 H           1.5436   -3.1297    2.0493 H       1  UNL1        0.0482
     43 H           0.0537   -3.6077    2.8976 H       1  UNL1        0.0482
     44 H           0.0608   -3.4648    1.1234 H       1  UNL1        0.0482
@<TRIPOS>BOND
     1     1     2    1
     2     1    27    1
     3     1    28    1
     4     1    29    1
     5     2     3    1
     6     2     4    1
     7     2    12    1
     8     4     5    2
     9     4     6   am
    10     6    11    1
    11     6     7    1
    12     7     8    1
    13     7    30    1
    14     7    31    1
    15     8     9    1
    16     8    32    1
    17     8    33    1
    18     9    10    1
    19    10    11    1
    20    10    34    1
    21    10    35    1
    22    11    36    1
    23    11    37    1
    24    12    13    1
    25    23    12    1
    26    13    22   ar
    27    13    14   ar
    28    14    15   ar
    29    14    38    1
    30    15    16   ar
    31    15    39    1
    32    16    17   ar
    33    16    40    1
    34    17    18    1
    35    17    22   ar
    36    18    19    1
    37    18    20    1
    38    18    21    1
    39    22    41    1
    40    23    24    1
    41    23    25    2
    42    23    26    2
    43    24    42    1
    44    24    43    1
    45    24    44    1
