@<TRIPOS>MOLECULE
ZINC000013064197
 71 75 0 0 0
SMALL
GASTEIGER

@<TRIPOS>ATOM
      1 C          -9.0478   -6.1173    4.1560 C.3     1  UNL1        0.0788
      2 O          -9.2316   -4.7919    3.6545 O.3     1  UNL1       -0.4951
      3 C          -8.2799   -4.3143    2.8100 C.ar    1  UNL1        0.1202
      4 C          -7.1945   -5.1072    2.4666 C.ar    1  UNL1       -0.0181
      5 C          -6.2287   -4.6195    1.6076 C.ar    1  UNL1       -0.0319
      6 C          -6.3429   -3.3422    1.0907 C.ar    1  UNL1        0.1057
      7 S          -5.1090   -2.7230   -0.0042 S.O2    1  UNL1        0.0616
      8 O          -5.1590   -1.3064    0.0950 O.2     1  UNL1       -0.1528
      9 O          -3.9324   -3.4788    0.2486 O.2     1  UNL1       -0.1528
     10 N          -5.5858   -3.1011   -1.5443 N.3     1  UNL1       -0.1635
     11 C          -5.2909   -4.4249   -2.0982 C.3     1  UNL1        0.0971
     12 C          -6.4778   -5.3308   -1.8937 C.2     1  UNL1        0.2291
     13 O          -7.4721   -4.9119   -1.3398 O.2     1  UNL1       -0.2743
     14 N          -6.4343   -6.6065   -2.3264 N.am    1  UNL1       -0.3111
     15 C          -7.5881   -7.4871   -2.1276 C.3     1  UNL1        0.0260
     16 H          -8.0696   -7.2467   -1.1797 H       1  UNL1        0.0501
     17 C          -8.5849   -7.2877   -3.2710 C.3     1  UNL1       -0.0461
     18 C          -7.1204   -8.9437   -2.1070 C.3     1  UNL1       -0.0104
     19 C          -6.1236   -9.1432   -0.9635 C.3     1  UNL1       -0.0428
     20 C          -5.6558  -10.5998   -0.9429 C.3     1  UNL1       -0.0400
     21 C          -4.9799  -10.9372   -2.2734 C.3     1  UNL1       -0.0473
     22 C          -5.9767  -10.7378   -3.4169 C.3     1  UNL1       -0.0400
     23 C          -7.1817  -11.6575   -3.2092 C.3     1  UNL1       -0.0473
     24 C          -7.8576  -11.3200   -1.8788 C.3     1  UNL1       -0.0400
     25 C          -6.8608  -11.5195   -0.7353 C.3     1  UNL1       -0.0473
     26 C          -8.3253   -9.8634   -1.8994 C.3     1  UNL1       -0.0428
     27 C          -6.4445   -9.2812   -3.4374 C.3     1  UNL1       -0.0428
     28 C          -6.3025   -2.1118   -2.3529 C.3     1  UNL1        0.0460
     29 C          -5.3245   -1.3823   -3.2373 C.ar    1  UNL1       -0.0317
     30 C          -4.7921   -0.1736   -2.8293 C.ar    1  UNL1       -0.0573
     31 C          -3.8950    0.4956   -3.6406 C.ar    1  UNL1       -0.0615
     32 C          -3.5299   -0.0441   -4.8598 C.ar    1  UNL1       -0.0617
     33 C          -4.0616   -1.2533   -5.2674 C.ar    1  UNL1       -0.0615
     34 C          -4.9555   -1.9245   -4.4542 C.ar    1  UNL1       -0.0573
     35 C          -7.4239   -2.5502    1.4311 C.ar    1  UNL1       -0.0319
     36 C          -8.3951   -3.0351    2.2855 C.ar    1  UNL1       -0.0181
     37 H          -9.8761   -6.3740    4.8164 H       1  UNL1        0.0660
     38 H          -9.0160   -6.8198    3.3231 H       1  UNL1        0.0660
     39 H          -8.1111   -6.1692    4.7110 H       1  UNL1        0.0660
     40 H          -7.1045   -6.1047    2.8707 H       1  UNL1        0.0655
     41 H          -5.3836   -5.2364    1.3400 H       1  UNL1        0.0638
     42 H          -5.0823   -4.3345   -3.1642 H       1  UNL1        0.0539
     43 H          -4.4217   -4.8451   -1.5922 H       1  UNL1        0.0539
     44 H          -5.6391   -6.9416   -2.7694 H       1  UNL1        0.1490
     45 H          -8.9181   -6.2499   -3.2857 H       1  UNL1        0.0248
     46 H          -8.1034   -7.5281   -4.2189 H       1  UNL1        0.0248
     47 H          -9.4433   -7.9429   -3.1231 H       1  UNL1        0.0248
     48 H          -5.2651   -8.4880   -1.1114 H       1  UNL1        0.0274
     49 H          -6.6051   -8.9027   -0.0157 H       1  UNL1        0.0274
     50 H          -4.9457  -10.7419   -0.1283 H       1  UNL1        0.0301
     51 H          -4.1215  -10.2820   -2.4213 H       1  UNL1        0.0271
     52 H          -4.6467  -11.9750   -2.2587 H       1  UNL1        0.0271
     53 H          -5.4952  -10.9782   -4.3647 H       1  UNL1        0.0301
     54 H          -7.8919  -11.5154   -4.0239 H       1  UNL1        0.0271
     55 H          -6.8485  -12.6952   -3.1946 H       1  UNL1        0.0271
     56 H          -8.7161  -11.9752   -1.7309 H       1  UNL1        0.0301
     57 H          -6.5276  -12.5572   -0.7206 H       1  UNL1        0.0271
     58 H          -7.3423  -11.2790    0.2125 H       1  UNL1        0.0271
     59 H          -8.8069   -9.6230   -0.9515 H       1  UNL1        0.0274
     60 H          -9.0355   -9.7213   -2.7140 H       1  UNL1        0.0274
     61 H          -7.1546   -9.1391   -4.2521 H       1  UNL1        0.0274
     62 H          -5.5860   -8.6260   -3.5854 H       1  UNL1        0.0274
     63 H          -7.0448   -2.6168   -2.9711 H       1  UNL1        0.0493
     64 H          -6.8010   -1.3985   -1.6965 H       1  UNL1        0.0493
     65 H          -5.0774    0.2481   -1.8768 H       1  UNL1        0.0621
     66 H          -3.4796    1.4403   -3.3221 H       1  UNL1        0.0618
     67 H          -2.8296    0.4791   -5.4939 H       1  UNL1        0.0618
     68 H          -3.7766   -1.6748   -6.2200 H       1  UNL1        0.0618
     69 H          -5.3709   -2.8692   -4.7726 H       1  UNL1        0.0621
     70 H          -7.5110   -1.5530    1.0257 H       1  UNL1        0.0638
     71 H          -9.2393   -2.4161    2.5511 H       1  UNL1        0.0655
@<TRIPOS>BOND
     1     1     2    1
     2     1    37    1
     3     1    38    1
     4     1    39    1
     5     2     3    1
     6     3    36   ar
     7     3     4   ar
     8     4     5   ar
     9     4    40    1
    10     5     6   ar
    11     5    41    1
    12     6     7    1
    13     6    35   ar
    14     7     8    2
    15     7     9    2
    16     7    10    1
    17    10    11    1
    18    10    28    1
    19    11    12    1
    20    11    42    1
    21    11    43    1
    22    12    13    2
    23    12    14   am
    24    14    15    1
    25    14    44    1
    26    15    16    1
    27    15    17    1
    28    18    15    1
    29    17    45    1
    30    17    46    1
    31    17    47    1
    32    18    26    1
    33    18    27    1
    34    18    19    1
    35    19    20    1
    36    19    48    1
    37    19    49    1
    38    20    25    1
    39    20    21    1
    40    20    50    1
    41    21    22    1
    42    21    51    1
    43    21    52    1
    44    22    23    1
    45    22    27    1
    46    22    53    1
    47    23    24    1
    48    23    54    1
    49    23    55    1
    50    24    25    1
    51    24    26    1
    52    24    56    1
    53    25    57    1
    54    25    58    1
    55    26    59    1
    56    26    60    1
    57    27    61    1
    58    27    62    1
    59    28    29    1
    60    28    63    1
    61    28    64    1
    62    29    34   ar
    63    29    30   ar
    64    30    31   ar
    65    30    65    1
    66    31    32   ar
    67    31    66    1
    68    32    33   ar
    69    32    67    1
    70    33    34   ar
    71    33    68    1
    72    34    69    1
    73    35    36   ar
    74    35    70    1
    75    36    71    1
