@<TRIPOS>MOLECULE
ZINC000017320859
 55 57 0 0 0
SMALL
GASTEIGER

@<TRIPOS>ATOM
      1 C          -0.0187    1.5258    0.0104 C.3     1  UNL1       -0.0507
      2 C           0.0021   -0.0041    0.0020 C.3     1  UNL1        0.0177
      3 N          -1.3723   -0.5112    0.0124 N.3     1  UNL1       -0.1771
      4 C          -2.1099   -0.6542   -1.2453 C.3     1  UNL1        0.0177
      5 C          -1.7727   -2.0031   -1.8836 C.3     1  UNL1       -0.0507
      6 S          -2.0922   -0.9227    1.4458 S.O2    1  UNL1        0.0608
      7 O          -3.1196   -1.8512    1.1269 O.2     1  UNL1       -0.1528
      8 O          -1.0393   -1.2108    2.3555 O.2     1  UNL1       -0.1528
      9 C          -2.8978    0.5199    2.0580 C.ar    1  UNL1        0.1055
     10 C          -2.2156    1.3954    2.8820 C.ar    1  UNL1       -0.0351
     11 C          -2.8476    2.5271    3.3622 C.ar    1  UNL1       -0.0567
     12 C          -4.1616    2.7836    3.0181 C.ar    1  UNL1       -0.0468
     13 C          -4.8508    4.0171    3.5421 C.3     1  UNL1       -0.0194
     14 C          -4.6371    5.1747    2.5647 C.3     1  UNL1        0.0279
     15 C          -5.3263    6.4082    3.0886 C.2     1  UNL1        0.2136
     16 O          -5.9290    6.3657    4.1402 O.2     1  UNL1       -0.2758
     17 N          -5.2728    7.5587    2.3886 N.am    1  UNL1       -0.3112
     18 C          -5.9428    8.7579    2.8979 C.3     1  UNL1        0.0369
     19 C          -5.7323    9.8980    1.9352 C.ar    1  UNL1       -0.0266
     20 C          -4.6345   10.7258    2.0761 C.ar    1  UNL1       -0.0534
     21 C          -4.4370   11.7733    1.1953 C.ar    1  UNL1       -0.0158
     22 C          -5.3403   11.9957    0.1692 C.ar    1  UNL1        0.1662
     23 O          -5.3775   12.9407   -0.8151 O.3     1  UNL1       -0.4526
     24 C          -6.2923   12.4308   -1.8033 C.3     1  UNL1        0.2332
     25 O          -7.1769   11.5840   -1.0460 O.3     1  UNL1       -0.4526
     26 C          -6.4469   11.1614    0.0272 C.ar    1  UNL1        0.1665
     27 C          -6.6350   10.1104    0.9095 C.ar    1  UNL1       -0.0115
     28 C          -4.8434    1.9088    2.1930 C.ar    1  UNL1       -0.0567
     29 C          -4.2102    0.7790    1.7096 C.ar    1  UNL1       -0.0351
     30 H           1.0039    1.9031    0.0027 H       1  UNL1        0.0243
     31 H          -0.5459    1.8868   -0.8726 H       1  UNL1        0.0243
     32 H          -0.5289    1.8773    0.9072 H       1  UNL1        0.0243
     33 H           0.5123   -0.3556   -0.8948 H       1  UNL1        0.0441
     34 H           0.5293   -0.3651    0.8851 H       1  UNL1        0.0441
     35 H          -3.1804   -0.6037   -1.0465 H       1  UNL1        0.0441
     36 H          -1.8283    0.1500   -1.9251 H       1  UNL1        0.0441
     37 H          -0.7022   -2.0536   -2.0825 H       1  UNL1        0.0243
     38 H          -2.0544   -2.8073   -1.2038 H       1  UNL1        0.0243
     39 H          -2.3215   -2.1096   -2.8194 H       1  UNL1        0.0243
     40 H          -1.1890    1.1950    3.1509 H       1  UNL1        0.0637
     41 H          -2.3149    3.2108    4.0066 H       1  UNL1        0.0621
     42 H          -5.9180    3.8210    3.6452 H       1  UNL1        0.0318
     43 H          -4.4342    4.2808    4.5142 H       1  UNL1        0.0318
     44 H          -3.5699    5.3709    2.4615 H       1  UNL1        0.0361
     45 H          -5.0537    4.9110    1.5925 H       1  UNL1        0.0361
     46 H          -4.7908    7.5927    1.5475 H       1  UNL1        0.1490
     47 H          -7.0100    8.5617    3.0011 H       1  UNL1        0.0512
     48 H          -5.5262    9.0216    3.8701 H       1  UNL1        0.0512
     49 H          -3.9295   10.5543    2.8761 H       1  UNL1        0.0622
     50 H          -3.5782   12.4184    1.3077 H       1  UNL1        0.0655
     51 H          -6.8471   13.2457   -2.2682 H       1  UNL1        0.1166
     52 H          -5.7585   11.8510   -2.5563 H       1  UNL1        0.1166
     53 H          -7.4888    9.4584    0.7981 H       1  UNL1        0.0658
     54 H          -5.8699    2.1094    1.9238 H       1  UNL1        0.0621
     55 H          -4.7428    0.0956    1.0650 H       1  UNL1        0.0637
@<TRIPOS>BOND
     1     1     2    1
     2     1    30    1
     3     1    31    1
     4     1    32    1
     5     2     3    1
     6     2    33    1
     7     2    34    1
     8     3     4    1
     9     6     3    1
    10     4     5    1
    11     4    35    1
    12     4    36    1
    13     5    37    1
    14     5    38    1
    15     5    39    1
    16     6     7    2
    17     6     8    2
    18     6     9    1
    19     9    29   ar
    20     9    10   ar
    21    10    11   ar
    22    10    40    1
    23    11    12   ar
    24    11    41    1
    25    12    13    1
    26    12    28   ar
    27    13    14    1
    28    13    42    1
    29    13    43    1
    30    14    15    1
    31    14    44    1
    32    14    45    1
    33    15    16    2
    34    15    17   am
    35    17    18    1
    36    17    46    1
    37    18    19    1
    38    18    47    1
    39    18    48    1
    40    19    27   ar
    41    19    20   ar
    42    20    21   ar
    43    20    49    1
    44    21    22   ar
    45    21    50    1
    46    22    26   ar
    47    22    23    1
    48    23    24    1
    49    24    25    1
    50    24    51    1
    51    24    52    1
    52    25    26    1
    53    26    27   ar
    54    27    53    1
    55    28    29   ar
    56    28    54    1
    57    29    55    1
