@<TRIPOS>MOLECULE
ZINC000096380186
 43 44 0 0 0
SMALL
GASTEIGER

@<TRIPOS>ATOM
      1 C           0.0027    1.5099   -0.0065 C.3     1  UNL1       -0.0612
      2 C           0.0202   -0.0199   -0.0197 C.3     1  UNL1       -0.0273
      3 C           0.7669   -0.5320    1.2136 C.3     1  UNL1       -0.0612
      4 C          -1.4162   -0.5465   -0.0013 C.3     1  UNL1        0.0685
      5 S          -1.4001   -2.3530   -0.1658 S.O2    1  UNL1       -0.0250
      6 O          -0.8945   -2.6860   -1.4514 O.2     1  UNL1       -0.1740
      7 O          -0.7823   -2.9071    0.9876 O.2     1  UNL1       -0.1740
      8 C          -3.1697   -2.7492   -0.1204 C.3     1  UNL1        0.1082
      9 C          -3.8736   -2.5992   -1.4812 C.3     1  UNL1        0.0399
     10 N          -4.5679   -3.8581   -1.1478 N.am    1  UNL1       -0.2816
     11 C          -5.7348   -4.4204   -1.5202 C.2     1  UNL1        0.3066
     12 O          -6.4623   -3.8466   -2.3074 O.2     1  UNL1       -0.2523
     13 N          -6.0952   -5.6189   -1.0199 N.am    1  UNL1       -0.2693
     14 C          -7.3487   -6.1583   -1.3300 C.ar    1  UNL1        0.0348
     15 C          -8.0408   -6.9001   -0.3819 C.ar    1  UNL1       -0.0399
     16 C          -9.2780   -7.4308   -0.6910 C.ar    1  UNL1       -0.0484
     17 C          -9.8274   -7.2240   -1.9430 C.ar    1  UNL1        0.0549
     18 C         -11.1775   -7.8044   -2.2768 C.3     1  UNL1        0.4174
     19 F         -12.1764   -6.8835   -1.9433 F       1  UNL1       -0.1659
     20 F         -11.2392   -8.0839   -3.6462 F       1  UNL1       -0.1659
     21 F         -11.3701   -8.9847   -1.5508 F       1  UNL1       -0.1659
     22 C          -9.1409   -6.4854   -2.8892 C.ar    1  UNL1       -0.0484
     23 C          -7.9055   -5.9480   -2.5847 C.ar    1  UNL1       -0.0399
     24 C          -3.4713   -4.2538   -0.2429 C.3     1  UNL1        0.0399
     25 H           1.0260    1.8851   -0.0196 H       1  UNL1        0.0233
     26 H          -0.5292    1.8748   -0.8852 H       1  UNL1        0.0233
     27 H          -0.5011    1.8598    0.8945 H       1  UNL1        0.0233
     28 H           0.5240   -0.3698   -0.9207 H       1  UNL1        0.0311
     29 H           1.7902   -0.1568    1.2006 H       1  UNL1        0.0233
     30 H           0.2631   -0.1821    2.1147 H       1  UNL1        0.0233
     31 H           0.7794   -1.6219    1.2043 H       1  UNL1        0.0233
     32 H          -1.8920   -0.2716    0.9400 H       1  UNL1        0.0502
     33 H          -1.9734   -0.1111   -0.8308 H       1  UNL1        0.0502
     34 H          -3.6931   -2.2623    0.7024 H       1  UNL1        0.0567
     35 H          -4.5352   -1.7350   -1.5407 H       1  UNL1        0.0484
     36 H          -3.2011   -2.6812   -2.3351 H       1  UNL1        0.0484
     37 H          -5.4857   -6.1075   -0.4448 H       1  UNL1        0.1564
     38 H          -7.6121   -7.0623    0.5960 H       1  UNL1        0.0636
     39 H          -9.8166   -8.0081    0.0459 H       1  UNL1        0.0624
     40 H          -9.5728   -6.3253   -3.8660 H       1  UNL1        0.0624
     41 H          -7.3699   -5.3710   -3.3240 H       1  UNL1        0.0636
     42 H          -2.6806   -4.8219   -0.7330 H       1  UNL1        0.0484
     43 H          -3.8117   -4.7108    0.6863 H       1  UNL1        0.0484
@<TRIPOS>BOND
     1     1     2    1
     2     1    25    1
     3     1    26    1
     4     1    27    1
     5     2     3    1
     6     2     4    1
     7     2    28    1
     8     3    29    1
     9     3    30    1
    10     3    31    1
    11     4     5    1
    12     4    32    1
    13     4    33    1
    14     5     6    2
    15     5     7    2
    16     5     8    1
    17     8    24    1
    18     8     9    1
    19     8    34    1
    20     9    10    1
    21     9    35    1
    22     9    36    1
    23    10    11   am
    24    10    24    1
    25    11    12    2
    26    11    13   am
    27    13    14    1
    28    13    37    1
    29    14    23   ar
    30    14    15   ar
    31    15    16   ar
    32    15    38    1
    33    16    17   ar
    34    16    39    1
    35    17    18    1
    36    17    22   ar
    37    18    19    1
    38    18    20    1
    39    18    21    1
    40    22    23   ar
    41    22    40    1
    42    23    41    1
    43    24    42    1
    44    24    43    1
