@<TRIPOS>MOLECULE
ZINC000096170964
 36 37 0 0 0
SMALL
GASTEIGER

@<TRIPOS>ATOM
      1 C          -0.5589    0.8579    0.2458 C.3     1  UNL1       -0.0478
      2 C          -0.0749   -0.5926    0.2956 C.3     1  UNL1        0.0291
      3 H          -0.9020   -1.2444    0.5771 H       1  UNL1        0.0477
      4 C           0.4575   -1.0039   -1.0807 C.3     1  UNL1       -0.0359
      5 C           1.0666   -2.4049   -0.9899 C.3     1  UNL1       -0.0504
      6 C           2.2368   -2.3913   -0.0036 C.3     1  UNL1       -0.0385
      7 C           1.7245   -1.9958    1.3849 C.3     1  UNL1        0.0208
      8 N           1.0077   -0.7171    1.2811 N.3     1  UNL1       -0.1738
      9 S           1.4167    0.5607    2.2519 S.O2    1  UNL1        0.0611
     10 O           2.6930    0.2573    2.7980 O.2     1  UNL1       -0.1528
     11 O           1.1529    1.7369    1.4994 O.2     1  UNL1       -0.1528
     12 C           0.2868    0.5711    3.6039 C.ar    1  UNL1        0.1071
     13 C          -0.8231    1.3938    3.5704 C.ar    1  UNL1       -0.0213
     14 C          -1.7104    1.4016    4.6317 C.ar    1  UNL1        0.0203
     15 BR         -3.2297    2.5266    4.5862 Br      1  UNL1       -0.0502
     16 C          -1.4863    0.5859    5.7259 C.ar    1  UNL1       -0.0360
     17 C          -0.3758   -0.2368    5.7586 C.ar    1  UNL1        0.0577
     18 C          -0.1317   -1.1259    6.9506 C.3     1  UNL1        0.4175
     19 F          -1.1563   -0.9441    7.8856 F       1  UNL1       -0.1659
     20 F          -0.1085   -2.4626    6.5383 F       1  UNL1       -0.1659
     21 F           1.0963   -0.7966    7.5343 F       1  UNL1       -0.1659
     22 C           0.5077   -0.2480    4.6956 C.ar    1  UNL1       -0.0236
     23 H           0.2229    1.4875   -0.1789 H       1  UNL1        0.0245
     24 H          -1.4533    0.9214   -0.3740 H       1  UNL1        0.0245
     25 H          -0.7913    1.1982    1.2549 H       1  UNL1        0.0245
     26 H          -0.3608   -1.0089   -1.8007 H       1  UNL1        0.0281
     27 H           1.2210   -0.2954   -1.4020 H       1  UNL1        0.0281
     28 H           0.3090   -3.1085   -0.6448 H       1  UNL1        0.0266
     29 H           1.4241   -2.7099   -1.9734 H       1  UNL1        0.0266
     30 H           2.6848   -3.3839    0.0430 H       1  UNL1        0.0278
     31 H           2.9835   -1.6698   -0.3351 H       1  UNL1        0.0278
     32 H           1.0458   -2.7636    1.7563 H       1  UNL1        0.0444
     33 H           2.5670   -1.8882    2.0681 H       1  UNL1        0.0444
     34 H          -0.9976    2.0308    2.7159 H       1  UNL1        0.0648
     35 H          -2.1785    0.5919    6.5549 H       1  UNL1        0.0634
     36 H           1.3750   -0.8911    4.7213 H       1  UNL1        0.0642
@<TRIPOS>BOND
     1     1     2    1
     2     1    23    1
     3     1    24    1
     4     1    25    1
     5     2     3    1
     6     2     8    1
     7     2     4    1
     8     4     5    1
     9     4    26    1
    10     4    27    1
    11     5     6    1
    12     5    28    1
    13     5    29    1
    14     6     7    1
    15     6    30    1
    16     6    31    1
    17     7     8    1
    18     7    32    1
    19     7    33    1
    20     9     8    1
    21     9    10    2
    22     9    11    2
    23     9    12    1
    24    12    22   ar
    25    12    13   ar
    26    13    14   ar
    27    13    34    1
    28    14    15    1
    29    14    16   ar
    30    16    17   ar
    31    16    35    1
    32    17    18    1
    33    17    22   ar
    34    18    19    1
    35    18    20    1
    36    18    21    1
    37    22    36    1
