@<TRIPOS>MOLECULE
ZINC000004938276
 54 55 0 0 0
SMALL
GASTEIGER

@<TRIPOS>ATOM
      1 C          -0.0187    1.5258    0.0104 C.3     1  UNL1       -0.0307
      2 C           0.0021   -0.0041    0.0020 C.3     1  UNL1        0.0868
      3 O          -1.3386   -0.4987    0.0122 O.3     1  UNL1       -0.4920
      4 C          -1.4983   -1.8483    0.0064 C.ar    1  UNL1        0.1235
      5 C          -0.3877   -2.6793   -0.0028 C.ar    1  UNL1       -0.0178
      6 C          -0.5528   -4.0510   -0.0082 C.ar    1  UNL1       -0.0319
      7 C          -1.8235   -4.5955   -0.0047 C.ar    1  UNL1        0.1060
      8 S          -2.0307   -6.3452   -0.0121 S.O2    1  UNL1        0.0613
      9 O          -3.3215   -6.5942   -0.5516 O.2     1  UNL1       -0.1528
     10 O          -0.8394   -6.8880   -0.5648 O.2     1  UNL1       -0.1528
     11 N          -2.0808   -6.8396    1.5676 N.3     1  UNL1       -0.1681
     12 C          -3.3628   -6.9092    2.2731 C.3     1  UNL1        0.0182
     13 C          -3.9134   -8.3343    2.1911 C.3     1  UNL1       -0.0507
     14 C          -0.8430   -7.2074    2.2596 C.3     1  UNL1        0.0968
     15 C          -0.3224   -6.0177    3.0242 C.2     1  UNL1        0.2289
     16 O          -0.9258   -4.9661    2.9940 O.2     1  UNL1       -0.2743
     17 N           0.8138   -6.1223    3.7415 N.am    1  UNL1       -0.3117
     18 C           1.3199   -4.9657    4.4848 C.3     1  UNL1        0.0379
     19 C           2.6126   -5.3498    5.2075 C.3     1  UNL1        0.0742
     20 H           3.3629   -5.6805    4.4893 H       1  UNL1        0.0611
     21 C           3.1466   -4.1494    6.0288 C.3     1  UNL1       -0.0231
     22 C           3.9818   -4.8826    7.1137 C.3     1  UNL1       -0.0271
     23 C           3.1670   -6.1749    7.3365 C.3     1  UNL1        0.0482
     24 O           2.3564   -6.3827    6.1723 O.3     1  UNL1       -0.3750
     25 C          -2.9323   -3.7692    0.0050 C.ar    1  UNL1       -0.0290
     26 C          -2.7726   -2.3972    0.0157 C.ar    1  UNL1       -0.0069
     27 C          -3.9814   -1.4973    0.0267 C.3     1  UNL1       -0.0362
     28 H           1.0039    1.9031    0.0027 H       1  UNL1        0.0262
     29 H          -0.5459    1.8868   -0.8726 H       1  UNL1        0.0262
     30 H          -0.5289    1.8773    0.9072 H       1  UNL1        0.0262
     31 H           0.5123   -0.3556   -0.8948 H       1  UNL1        0.0694
     32 H           0.5293   -0.3651    0.8851 H       1  UNL1        0.0694
     33 H           0.6052   -2.2544   -0.0062 H       1  UNL1        0.0655
     34 H           0.3115   -4.6985   -0.0154 H       1  UNL1        0.0638
     35 H          -3.2179   -6.6352    3.3181 H       1  UNL1        0.0441
     36 H          -4.0695   -6.2195    1.8114 H       1  UNL1        0.0441
     37 H          -4.0584   -8.6082    1.1460 H       1  UNL1        0.0243
     38 H          -3.2068   -9.0239    2.6528 H       1  UNL1        0.0243
     39 H          -4.8673   -8.3861    2.7159 H       1  UNL1        0.0243
     40 H          -1.0431   -8.0251    2.9521 H       1  UNL1        0.0539
     41 H          -0.0986   -7.5239    1.5291 H       1  UNL1        0.0539
     42 H           1.2965   -6.9633    3.7657 H       1  UNL1        0.1488
     43 H           1.5200   -4.1480    3.7923 H       1  UNL1        0.0487
     44 H           0.5755   -4.6492    5.2153 H       1  UNL1        0.0487
     45 H           3.7772   -3.5042    5.4170 H       1  UNL1        0.0291
     46 H           2.3288   -3.5853    6.4773 H       1  UNL1        0.0291
     47 H           4.9810   -5.1129    6.7441 H       1  UNL1        0.0288
     48 H           4.0319   -4.2929    8.0290 H       1  UNL1        0.0288
     49 H           3.8428   -7.0196    7.4704 H       1  UNL1        0.0560
     50 H           2.5321   -6.0647    8.2156 H       1  UNL1        0.0560
     51 H          -3.9240   -4.1969    0.0080 H       1  UNL1        0.0641
     52 H          -4.2696   -1.2887    1.0570 H       1  UNL1        0.0279
     53 H          -3.7429   -0.5623   -0.4803 H       1  UNL1        0.0279
     54 H          -4.8059   -1.9900   -0.4886 H       1  UNL1        0.0279
@<TRIPOS>BOND
     1     1     2    1
     2     1    28    1
     3     1    29    1
     4     1    30    1
     5     2     3    1
     6     2    31    1
     7     2    32    1
     8     3     4    1
     9     4    26   ar
    10     4     5   ar
    11     5     6   ar
    12     5    33    1
    13     6     7   ar
    14     6    34    1
    15     7     8    1
    16     7    25   ar
    17     8     9    2
    18     8    10    2
    19     8    11    1
    20    11    12    1
    21    11    14    1
    22    12    13    1
    23    12    35    1
    24    12    36    1
    25    13    37    1
    26    13    38    1
    27    13    39    1
    28    14    15    1
    29    14    40    1
    30    14    41    1
    31    15    16    2
    32    15    17   am
    33    17    18    1
    34    17    42    1
    35    18    19    1
    36    18    43    1
    37    18    44    1
    38    19    20    1
    39    19    24    1
    40    19    21    1
    41    21    22    1
    42    21    45    1
    43    21    46    1
    44    22    23    1
    45    22    47    1
    46    22    48    1
    47    23    24    1
    48    23    49    1
    49    23    50    1
    50    25    26   ar
    51    25    51    1
    52    26    27    1
    53    27    52    1
    54    27    53    1
    55    27    54    1
