@<TRIPOS>MOLECULE
ZINC000013027773
 32 33 0 0 0
SMALL
GASTEIGER

@<TRIPOS>ATOM
      1 O           0.1960    0.0081    0.0332 O.co2   1  UNL1       -0.2445
      2 C           0.1073    1.2240    0.0277 C.2     1  UNL1        0.3745
      3 O           1.1153    1.9086   -0.0157 O.co2   1  UNL1       -0.2445
      4 C          -1.2484    1.8809    0.0681 C.3     1  UNL1        0.1328
      5 H          -1.8470    1.4462    0.8686 H       1  UNL1        0.0597
      6 C          -1.9645    1.6902   -1.2856 C.3     1  UNL1       -0.0240
      7 C          -2.6823    3.0500   -1.4936 C.3     1  UNL1       -0.0365
      8 C          -1.6591    4.0386   -0.8808 C.3     1  UNL1        0.0215
      9 N          -1.0971    3.3270    0.2856 N.3     1  UNL1       -0.1626
     10 S          -0.4105    4.0409    1.6127 S.O2    1  UNL1        0.0630
     11 O           0.3160    3.0218    2.2857 O.2     1  UNL1       -0.1528
     12 O           0.1850    5.2476    1.1563 O.2     1  UNL1       -0.1528
     13 C          -1.7232    4.5103    2.6902 C.ar    1  UNL1        0.1242
     14 C          -1.9948    5.8479    2.9068 C.ar    1  UNL1       -0.0223
     15 C          -3.0248    6.2164    3.7523 C.ar    1  UNL1        0.0567
     16 C          -3.3204    7.6752    3.9880 C.3     1  UNL1        0.4175
     17 F          -4.2499    8.1214    3.0423 F       1  UNL1       -0.1659
     18 F          -3.8461    7.8427    5.2736 F       1  UNL1       -0.1659
     19 F          -2.1397    8.4158    3.8668 F       1  UNL1       -0.1659
     20 C          -3.7838    5.2474    4.3811 C.ar    1  UNL1       -0.0486
     21 C          -3.5131    3.9091    4.1652 C.ar    1  UNL1       -0.0410
     22 C          -2.4861    3.5397    3.3153 C.ar    1  UNL1        0.0673
     23 CL         -2.1455    1.8592    3.0438 Cl      1  UNL1       -0.0815
     24 H          -1.2424    1.5096   -2.0818 H       1  UNL1        0.0287
     25 H          -2.6881    0.8771   -1.2280 H       1  UNL1        0.0287
     26 H          -2.8351    3.2530   -2.5536 H       1  UNL1        0.0279
     27 H          -3.6274    3.0798   -0.9514 H       1  UNL1        0.0279
     28 H          -0.8741    4.2673   -1.6016 H       1  UNL1        0.0444
     29 H          -2.1595    4.9526   -0.5609 H       1  UNL1        0.0444
     30 H          -1.4021    6.6055    2.4158 H       1  UNL1        0.0643
     31 H          -4.5883    5.5358    5.0414 H       1  UNL1        0.0623
     32 H          -4.1062    3.1520    4.6566 H       1  UNL1        0.0633
@<TRIPOS>BOND
     1     1     2   ar
     2     2     3   ar
     3     2     4    1
     4     4     5    1
     5     4     9    1
     6     4     6    1
     7     6     7    1
     8     6    24    1
     9     6    25    1
    10     7     8    1
    11     7    26    1
    12     7    27    1
    13     8     9    1
    14     8    28    1
    15     8    29    1
    16    10     9    1
    17    10    11    2
    18    10    12    2
    19    10    13    1
    20    13    22   ar
    21    13    14   ar
    22    14    15   ar
    23    14    30    1
    24    15    16    1
    25    15    20   ar
    26    16    17    1
    27    16    18    1
    28    16    19    1
    29    20    21   ar
    30    20    31    1
    31    21    22   ar
    32    21    32    1
    33    22    23    1
