@<TRIPOS>MOLECULE
ZINC000047267020
 44 46 0 0 0
SMALL
GASTEIGER

@<TRIPOS>ATOM
      1 O           0.0545    0.1413    0.3114 O.2     1  UNL1       -0.2758
      2 C          -0.0038    1.3413    0.1457 C.2     1  UNL1        0.2149
      3 C          -1.3335    1.9430   -0.1963 C.3     1  UNL1        0.0452
      4 C          -1.2060    2.8175   -1.4483 C.3     1  UNL1        0.0650
      5 H          -0.4507    2.4016   -2.1151 H       1  UNL1        0.0534
      6 C          -2.5326    2.8896   -2.1596 C.ar    1  UNL1       -0.0282
      7 C          -3.6406    3.3959   -1.5063 C.ar    1  UNL1       -0.0570
      8 C          -4.8575    3.4620   -2.1588 C.ar    1  UNL1       -0.0615
      9 C          -4.9662    3.0221   -3.4648 C.ar    1  UNL1       -0.0617
     10 C          -3.8580    2.5166   -4.1184 C.ar    1  UNL1       -0.0615
     11 C          -2.6402    2.4545   -3.4673 C.ar    1  UNL1       -0.0570
     12 N          -0.8012    4.1552   -1.0113 N.3     1  UNL1       -0.1673
     13 S          -1.2819    5.5041   -1.8429 S.O2    1  UNL1        0.0614
     14 O          -2.3643    5.1008   -2.6705 O.2     1  UNL1       -0.1528
     15 O          -1.3826    6.5504   -0.8867 O.2     1  UNL1       -0.1528
     16 C           0.0353    5.9456   -2.9267 C.ar    1  UNL1        0.1055
     17 C           1.0491    6.7732   -2.4812 C.ar    1  UNL1       -0.0348
     18 C           2.0825    7.1195   -3.3315 C.ar    1  UNL1       -0.0483
     19 C           2.1024    6.6380   -4.6271 C.ar    1  UNL1        0.0549
     20 C           3.2288    7.0160   -5.5542 C.3     1  UNL1        0.4174
     21 F           4.2618    6.0796   -5.4390 F       1  UNL1       -0.1659
     22 F           2.7613    7.0348   -6.8726 F       1  UNL1       -0.1659
     23 F           3.7090    8.2846   -5.2115 F       1  UNL1       -0.1659
     24 C           1.0894    5.8094   -5.0722 C.ar    1  UNL1       -0.0483
     25 C           0.0580    5.4599   -4.2207 C.ar    1  UNL1       -0.0348
     26 C           0.0465    4.2676    0.1911 C.3     1  UNL1        0.0367
     27 C           1.3207    3.4495   -0.0408 C.3     1  UNL1        0.0260
     28 N           1.1119    2.0460    0.2829 N.am    1  UNL1       -0.3140
     29 H          -2.0538    1.1466   -0.3832 H       1  UNL1        0.0378
     30 H          -1.6797    2.5535    0.6377 H       1  UNL1        0.0378
     31 H          -3.5556    3.7396   -0.4860 H       1  UNL1        0.0621
     32 H          -5.7233    3.8569   -1.6481 H       1  UNL1        0.0618
     33 H          -5.9171    3.0730   -3.9743 H       1  UNL1        0.0618
     34 H          -3.9431    2.1726   -5.1386 H       1  UNL1        0.0618
     35 H          -1.7744    2.0596   -3.9780 H       1  UNL1        0.0621
     36 H           1.0335    7.1494   -1.4690 H       1  UNL1        0.0637
     37 H           2.8741    7.7666   -2.9836 H       1  UNL1        0.0624
     38 H           1.1052    5.4329   -6.0843 H       1  UNL1        0.0624
     39 H          -0.7334    4.8125   -4.5685 H       1  UNL1        0.0637
     40 H           0.3065    5.3124    0.3610 H       1  UNL1        0.0459
     41 H          -0.4890    3.8763    1.0561 H       1  UNL1        0.0459
     42 H           1.6163    3.5381   -1.0862 H       1  UNL1        0.0475
     43 H           2.1178    3.8443    0.5891 H       1  UNL1        0.0475
     44 H           1.8800    1.5688    0.6337 H       1  UNL1        0.1487
@<TRIPOS>BOND
     1     1     2    2
     2     2    28   am
     3     2     3    1
     4     3     4    1
     5     3    29    1
     6     3    30    1
     7     4     5    1
     8     4     6    1
     9     4    12    1
    10     6    11   ar
    11     6     7   ar
    12     7     8   ar
    13     7    31    1
    14     8     9   ar
    15     8    32    1
    16     9    10   ar
    17     9    33    1
    18    10    11   ar
    19    10    34    1
    20    11    35    1
    21    13    12    1
    22    12    26    1
    23    13    14    2
    24    13    15    2
    25    13    16    1
    26    16    25   ar
    27    16    17   ar
    28    17    18   ar
    29    17    36    1
    30    18    19   ar
    31    18    37    1
    32    19    20    1
    33    19    24   ar
    34    20    21    1
    35    20    22    1
    36    20    23    1
    37    24    25   ar
    38    24    38    1
    39    25    39    1
    40    26    27    1
    41    26    40    1
    42    26    41    1
    43    27    28    1
    44    27    42    1
    45    27    43    1
    46    28    44    1
