@<TRIPOS>MOLECULE
ZINC000031625403
 39 40 0 0 0
SMALL
GASTEIGER

@<TRIPOS>ATOM
      1 N          -0.0162    1.3436    0.0094 N.am    1  UNL1       -0.3291
      2 C           0.0021   -0.0041    0.0020 C.2     1  UNL1        0.2151
      3 O           1.0605   -0.5961   -0.0113 O.2     1  UNL1       -0.2757
      4 C          -1.2926   -0.7753    0.0102 C.3     1  UNL1        0.0511
      5 H          -1.8765   -0.5153   -0.8727 H       1  UNL1        0.0409
      6 C          -0.9933   -2.2761    0.0009 C.3     1  UNL1       -0.0391
      7 C          -2.3075   -3.0599   -0.0239 C.3     1  UNL1       -0.0364
      8 C          -3.1147   -2.7357    1.2371 C.3     1  UNL1        0.0148
      9 N          -3.2826   -1.2790    1.3296 N.am    1  UNL1       -0.2993
     10 C          -4.5088   -0.7364    1.4655 C.2     1  UNL1        0.2355
     11 O          -4.6342    0.4676    1.5407 O.2     1  UNL1       -0.2736
     12 C          -5.7240   -1.6256    1.5239 C.3     1  UNL1        0.1025
     13 N          -6.9258   -0.8011    1.6727 N.ar    1  UNL1       -0.3058
     14 C          -7.3708   -0.4815    2.9148 C.ar    1  UNL1        0.0201
     15 C          -8.4789    0.2785    3.0776 C.ar    1  UNL1        0.0711
     16 C          -8.9594    0.6241    4.4635 C.3     1  UNL1        0.4188
     17 F          -8.4537    1.8748    4.8340 F       1  UNL1       -0.1658
     18 F         -10.3577    0.6642    4.4758 F       1  UNL1       -0.1658
     19 F          -8.5127   -0.3459    5.3673 F       1  UNL1       -0.1658
     20 C          -9.1790    0.7444    1.9559 C.ar    1  UNL1       -0.0436
     21 C          -8.7301    0.4227    0.7087 C.ar    1  UNL1        0.0035
     22 C          -7.5733   -0.3642    0.5758 C.ar    1  UNL1        0.2517
     23 O          -7.1606   -0.6595   -0.5344 O.2     1  UNL1       -0.2677
     24 C          -2.0887   -0.4245    1.2712 C.3     1  UNL1        0.0258
     25 H           0.8172    1.8399    0.0041 H       1  UNL1        0.1449
     26 H          -0.8627    1.8171    0.0160 H       1  UNL1        0.1449
     27 H          -0.4060   -2.5237   -0.8833 H       1  UNL1        0.0273
     28 H          -0.4301   -2.5396    0.8962 H       1  UNL1        0.0273
     29 H          -2.8823   -2.7785   -0.9062 H       1  UNL1        0.0281
     30 H          -2.0933   -4.1283   -0.0541 H       1  UNL1        0.0281
     31 H          -4.0927   -3.2132    1.1778 H       1  UNL1        0.0464
     32 H          -2.5813   -3.0986    2.1158 H       1  UNL1        0.0464
     33 H          -5.7936   -2.2066    0.6043 H       1  UNL1        0.0589
     34 H          -5.6393   -2.3013    2.3750 H       1  UNL1        0.0589
     35 H          -6.8352   -0.8378    3.7823 H       1  UNL1        0.0816
     36 H         -10.0642    1.3510    2.0779 H       1  UNL1        0.0625
     37 H          -9.2560    0.7722   -0.1675 H       1  UNL1        0.0672
     38 H          -1.4712   -0.5986    2.1524 H       1  UNL1        0.0472
     39 H          -2.3900    0.6224    1.2347 H       1  UNL1        0.0472
@<TRIPOS>BOND
     1     1     2   am
     2     1    25    1
     3     1    26    1
     4     2     3    2
     5     2     4    1
     6     4     5    1
     7     4    24    1
     8     4     6    1
     9     6     7    1
    10     6    27    1
    11     6    28    1
    12     7     8    1
    13     7    29    1
    14     7    30    1
    15     8     9    1
    16     8    31    1
    17     8    32    1
    18     9    10   am
    19     9    24    1
    20    10    11    2
    21    10    12    1
    22    12    13    1
    23    12    33    1
    24    12    34    1
    25    13    22   ar
    26    13    14   ar
    27    14    15   ar
    28    14    35    1
    29    15    16    1
    30    15    20   ar
    31    16    17    1
    32    16    18    1
    33    16    19    1
    34    20    21   ar
    35    20    36    1
    36    21    22   ar
    37    21    37    1
    38    22    23    2
    39    24    38    1
    40    24    39    1
