@<TRIPOS>MOLECULE
ZINC000514288717
 46 49 0 0 0
SMALL
GASTEIGER

@<TRIPOS>ATOM
      1 C          -0.0206    1.4541   -0.0045 C.3     1  UNL1        0.0039
      2 N          -0.0026   -0.0107   -0.0030 N.am    1  UNL1       -0.2926
      3 C          -0.0091   -0.6495   -1.1929 C.2     1  UNL1        0.2503
      4 O           0.0911   -0.0335   -2.2364 O.2     1  UNL1       -0.2699
      5 C          -0.1424   -2.1316   -1.1857 C.ar    1  UNL1        0.0790
      6 C           0.7416   -2.9624   -1.8566 C.ar    1  UNL1       -0.0345
      7 C           0.4973   -4.3241   -1.8679 C.ar    1  UNL1        0.0558
      8 C           1.4453   -5.2545   -2.5796 C.3     1  UNL1        0.4174
      9 F           2.5009   -5.5886   -1.7244 F       1  UNL1       -0.1659
     10 F           0.7636   -6.4171   -2.9552 F       1  UNL1       -0.1659
     11 F           1.9515   -4.6218   -3.7200 F       1  UNL1       -0.1659
     12 C          -0.6192   -4.8314   -1.2239 C.ar    1  UNL1       -0.0466
     13 C          -1.4812   -4.0039   -0.5312 C.ar    1  UNL1       -0.0186
     14 C          -1.2245   -2.6374   -0.4730 C.ar    1  UNL1        0.1332
     15 O          -1.9233   -1.8602    0.3771 O.3     1  UNL1       -0.4848
     16 C          -1.2830   -1.4671    1.5809 C.3     1  UNL1        0.1341
     17 H          -1.9543   -0.8561    2.1845 H       1  UNL1        0.0766
     18 C          -0.8128   -2.6957    2.3800 C.3     1  UNL1        0.0594
     19 N           0.5274   -3.0198    1.8669 N.3     1  UNL1       -0.1711
     20 S           1.2684   -4.4968    1.9738 S.O2    1  UNL1        0.0610
     21 O           0.2301   -5.4668    1.9854 O.2     1  UNL1       -0.1528
     22 O           2.3156   -4.4908    1.0132 O.2     1  UNL1       -0.1528
     23 C           2.0433   -4.5785    3.5541 C.ar    1  UNL1        0.1055
     24 C           3.3055   -4.0440    3.7335 C.ar    1  UNL1       -0.0353
     25 C           3.9134   -4.1080    4.9733 C.ar    1  UNL1       -0.0599
     26 C           3.2590   -4.7061    6.0339 C.ar    1  UNL1       -0.0616
     27 C           1.9965   -5.2398    5.8548 C.ar    1  UNL1       -0.0599
     28 C           1.3868   -5.1719    4.6160 C.ar    1  UNL1       -0.0353
     29 C           1.0998   -1.8211    1.2447 C.3     1  UNL1        0.0427
     30 C           0.0271   -0.6916    1.2727 C.3     1  UNL1        0.0784
     31 H           0.2498    0.0137    2.0734 H       1  UNL1        0.0551
     32 H           1.0023    1.8301   -0.0221 H       1  UNL1        0.0429
     33 H          -0.5537    1.8100   -0.8862 H       1  UNL1        0.0429
     34 H          -0.5240    1.8123    0.8935 H       1  UNL1        0.0429
     35 H           1.6047   -2.5542   -2.3613 H       1  UNL1        0.0632
     36 H          -0.8194   -5.8920   -1.2645 H       1  UNL1        0.0624
     37 H          -2.3494   -4.4149   -0.0376 H       1  UNL1        0.0654
     38 H          -0.7609   -2.4560    3.4420 H       1  UNL1        0.0481
     39 H          -1.4909   -3.5331    2.2156 H       1  UNL1        0.0481
     40 H           3.8168   -3.5767    2.9048 H       1  UNL1        0.0637
     41 H           4.8998   -3.6911    5.1132 H       1  UNL1        0.0618
     42 H           3.7343   -4.7568    7.0024 H       1  UNL1        0.0618
     43 H           1.4853   -5.7074    6.6833 H       1  UNL1        0.0618
     44 H           0.4004   -5.5889    4.4761 H       1  UNL1        0.0637
     45 H           1.9796   -1.5009    1.8029 H       1  UNL1        0.0463
     46 H           1.3772   -2.0382    0.2132 H       1  UNL1        0.0463
@<TRIPOS>BOND
     1     1     2    1
     2     1    32    1
     3     1    33    1
     4     1    34    1
     5     2    30    1
     6     2     3   am
     7     3     4    2
     8     3     5    1
     9     5    14   ar
    10     5     6   ar
    11     6     7   ar
    12     6    35    1
    13     7     8    1
    14     7    12   ar
    15     8     9    1
    16     8    10    1
    17     8    11    1
    18    12    13   ar
    19    12    36    1
    20    13    14   ar
    21    13    37    1
    22    14    15    1
    23    15    16    1
    24    16    17    1
    25    16    30    1
    26    16    18    1
    27    18    19    1
    28    18    38    1
    29    18    39    1
    30    20    19    1
    31    19    29    1
    32    20    21    2
    33    20    22    2
    34    20    23    1
    35    23    28   ar
    36    23    24   ar
    37    24    25   ar
    38    24    40    1
    39    25    26   ar
    40    25    41    1
    41    26    27   ar
    42    26    42    1
    43    27    28   ar
    44    27    43    1
    45    28    44    1
    46    29    30    1
    47    29    45    1
    48    29    46    1
    49    30    31    1
