@<TRIPOS>MOLECULE
ZINC000006944730
 55 56 0 0 0
SMALL
GASTEIGER

@<TRIPOS>ATOM
      1 C          -0.0187    1.5258    0.0104 C.3     1  UNL1       -0.0652
      2 C           0.0021   -0.0041    0.0020 C.3     1  UNL1       -0.0542
      3 C           0.7421   -0.5109    1.2415 C.3     1  UNL1       -0.0350
      4 C           0.7628   -2.0407    1.2331 C.3     1  UNL1        0.0203
      5 H           1.1931   -2.3931    0.2957 H       1  UNL1        0.0495
      6 C           1.6083   -2.5458    2.4040 C.3     1  UNL1       -0.0466
      7 N          -0.6052   -2.5484    1.3639 N.am    1  UNL1       -0.3116
      8 C          -0.9177   -3.7721    0.8935 C.2     1  UNL1        0.2290
      9 O          -0.0664   -4.4531    0.3620 O.2     1  UNL1       -0.2743
     10 C          -2.3249   -4.2944    1.0279 C.3     1  UNL1        0.0968
     11 N          -2.4060   -5.6354    0.4437 N.3     1  UNL1       -0.1675
     12 C          -2.0445   -6.8069    1.2457 C.3     1  UNL1        0.0250
     13 C          -3.2533   -7.2528    2.0709 C.3     1  UNL1       -0.0132
     14 C          -2.8814   -8.4579    2.8958 C.ar    1  UNL1       -0.0461
     15 C          -3.0505   -9.7286    2.3785 C.ar    1  UNL1       -0.0585
     16 C          -2.7094  -10.8339    3.1352 C.ar    1  UNL1       -0.0615
     17 C          -2.1987  -10.6686    4.4091 C.ar    1  UNL1       -0.0617
     18 C          -2.0287   -9.3979    4.9261 C.ar    1  UNL1       -0.0615
     19 C          -2.3658   -8.2924    4.1677 C.ar    1  UNL1       -0.0585
     20 S          -2.9064   -5.8270   -1.1232 S.O2    1  UNL1        0.0613
     21 O          -3.5425   -7.0960   -1.1889 O.2     1  UNL1       -0.1528
     22 O          -3.5507   -4.6147   -1.4898 O.2     1  UNL1       -0.1528
     23 C          -1.4596   -5.9434   -2.1222 C.ar    1  UNL1        0.1055
     24 C          -0.8928   -4.8001   -2.6535 C.ar    1  UNL1       -0.0353
     25 C           0.2422   -4.8914   -3.4373 C.ar    1  UNL1       -0.0599
     26 C           0.8107   -6.1260   -3.6893 C.ar    1  UNL1       -0.0616
     27 C           0.2443   -7.2692   -3.1572 C.ar    1  UNL1       -0.0599
     28 C          -0.8882   -7.1775   -2.3699 C.ar    1  UNL1       -0.0353
     29 H           1.0039    1.9031    0.0027 H       1  UNL1        0.0230
     30 H          -0.5459    1.8868   -0.8726 H       1  UNL1        0.0230
     31 H          -0.5289    1.8773    0.9072 H       1  UNL1        0.0230
     32 H          -1.0205   -0.3814    0.0098 H       1  UNL1        0.0263
     33 H           0.5123   -0.3556   -0.8948 H       1  UNL1        0.0263
     34 H           1.7647   -0.1336    1.2338 H       1  UNL1        0.0283
     35 H           0.2319   -0.1594    2.1383 H       1  UNL1        0.0283
     36 H           1.6231   -3.6357    2.3980 H       1  UNL1        0.0247
     37 H           2.6261   -2.1681    2.3068 H       1  UNL1        0.0247
     38 H           1.1780   -2.1934    3.3415 H       1  UNL1        0.0247
     39 H          -1.2861   -2.0038    1.7889 H       1  UNL1        0.1490
     40 H          -2.5961   -4.3405    2.0827 H       1  UNL1        0.0539
     41 H          -3.0112   -3.6282    0.5052 H       1  UNL1        0.0539
     42 H          -1.7359   -7.6177    0.5859 H       1  UNL1        0.0447
     43 H          -1.2230   -6.5499    1.9144 H       1  UNL1        0.0447
     44 H          -3.5619   -6.4420    2.7307 H       1  UNL1        0.0326
     45 H          -4.0748   -7.5098    1.4022 H       1  UNL1        0.0326
     46 H          -3.4495   -9.8577    1.3833 H       1  UNL1        0.0620
     47 H          -2.8422  -11.8267    2.7313 H       1  UNL1        0.0618
     48 H          -1.9329  -11.5323    5.0006 H       1  UNL1        0.0618
     49 H          -1.6301   -9.2687    5.9215 H       1  UNL1        0.0618
     50 H          -2.2330   -7.2996    4.5716 H       1  UNL1        0.0620
     51 H          -1.3369   -3.8355   -2.4566 H       1  UNL1        0.0637
     52 H           0.6847   -3.9981   -3.8530 H       1  UNL1        0.0618
     53 H           1.6970   -6.1973   -4.3022 H       1  UNL1        0.0618
     54 H           0.6883   -8.2338   -3.3544 H       1  UNL1        0.0618
     55 H          -1.3307   -8.0707   -1.9542 H       1  UNL1        0.0637
@<TRIPOS>BOND
     1     1     2    1
     2     1    29    1
     3     1    30    1
     4     1    31    1
     5     2     3    1
     6     2    32    1
     7     2    33    1
     8     3     4    1
     9     3    34    1
    10     3    35    1
    11     4     5    1
    12     4     6    1
    13     4     7    1
    14     6    36    1
    15     6    37    1
    16     6    38    1
    17     7     8   am
    18     7    39    1
    19     8     9    2
    20     8    10    1
    21    10    11    1
    22    10    40    1
    23    10    41    1
    24    11    12    1
    25    20    11    1
    26    12    13    1
    27    12    42    1
    28    12    43    1
    29    13    14    1
    30    13    44    1
    31    13    45    1
    32    14    19   ar
    33    14    15   ar
    34    15    16   ar
    35    15    46    1
    36    16    17   ar
    37    16    47    1
    38    17    18   ar
    39    17    48    1
    40    18    19   ar
    41    18    49    1
    42    19    50    1
    43    20    21    2
    44    20    22    2
    45    20    23    1
    46    23    28   ar
    47    23    24   ar
    48    24    25   ar
    49    24    51    1
    50    25    26   ar
    51    25    52    1
    52    26    27   ar
    53    26    53    1
    54    27    28   ar
    55    27    54    1
    56    28    55    1
