@<TRIPOS>MOLECULE
ZINC000001098826
 43 44 0 0 0
SMALL
GASTEIGER

@<TRIPOS>ATOM
      1 C          -0.2344    1.2915    0.6642 C.3     1  UNL1       -0.0362
      2 C           0.0760   -0.1769    0.3667 C.3     1  UNL1        0.1191
      3 H           0.8008   -0.2378   -0.4452 H       1  UNL1        0.0612
      4 C           0.6465   -0.8295    1.5994 C.2     1  UNL1        0.2392
      5 O          -0.0754   -1.4648    2.3385 O.2     1  UNL1       -0.2734
      6 N           1.9590   -0.7072    1.8805 N.am    1  UNL1       -0.2827
      7 C           2.4686   -1.2191    3.0796 C.ar    1  UNL1        0.0524
      8 C           1.6182   -1.4612    4.1497 C.ar    1  UNL1       -0.0274
      9 C           2.1241   -1.9669    5.3317 C.ar    1  UNL1        0.0566
     10 C           1.2011   -2.2302    6.4935 C.3     1  UNL1        0.4175
     11 F           0.7135   -3.5391    6.4143 F       1  UNL1       -0.1659
     12 F           1.9023   -2.0656    7.6928 F       1  UNL1       -0.1659
     13 F           0.1306   -1.3305    6.4519 F       1  UNL1       -0.1659
     14 C           3.4757   -2.2321    5.4501 C.ar    1  UNL1       -0.0486
     15 C           4.3265   -1.9919    4.3864 C.ar    1  UNL1       -0.0411
     16 C           3.8263   -1.4915    3.1994 C.ar    1  UNL1        0.0621
     17 CL          4.8943   -1.1907    1.8643 Cl      1  UNL1       -0.0816
     18 N          -1.1556   -0.8666   -0.0254 N.pl3   1  UNL1       -0.1960
     19 C          -2.2439   -0.9040    0.8493 C.ar    1  UNL1        0.0517
     20 C          -2.6752   -2.1164    1.3724 C.ar    1  UNL1       -0.0391
     21 C          -3.7513   -2.1497    2.2374 C.ar    1  UNL1       -0.0600
     22 C          -4.3995   -0.9780    2.5826 C.ar    1  UNL1       -0.0616
     23 C          -3.9727    0.2307    2.0636 C.ar    1  UNL1       -0.0600
     24 C          -2.8937    0.2718    1.2026 C.ar    1  UNL1       -0.0391
     25 S          -1.2575   -1.6019   -1.5057 S.O2    1  UNL1        0.0432
     26 C          -0.5049   -3.2330   -1.2537 C.3     1  UNL1        0.0738
     27 O          -2.6535   -1.7275   -1.7393 O.2     1  UNL1       -0.1552
     28 O          -0.4423   -0.8019   -2.3512 O.2     1  UNL1       -0.1552
     29 H           0.6963    1.8315    0.8383 H       1  UNL1        0.0253
     30 H          -0.7565    1.7318   -0.1853 H       1  UNL1        0.0253
     31 H          -0.8640    1.3572    1.5515 H       1  UNL1        0.0253
     32 H           2.5504   -0.2644    1.2520 H       1  UNL1        0.1549
     33 H           0.5622   -1.2540    4.0585 H       1  UNL1        0.0642
     34 H           3.8682   -2.6273    6.3753 H       1  UNL1        0.0623
     35 H           5.3819   -2.1998    4.4821 H       1  UNL1        0.0633
     36 H          -2.1698   -3.0319    1.1027 H       1  UNL1        0.0636
     37 H          -4.0871   -3.0920    2.6445 H       1  UNL1        0.0618
     38 H          -5.2412   -1.0069    3.2586 H       1  UNL1        0.0618
     39 H          -4.4812    1.1439    2.3352 H       1  UNL1        0.0618
     40 H          -2.5608    1.2161    0.7979 H       1  UNL1        0.0636
     41 H          -0.9655   -3.7165   -0.3921 H       1  UNL1        0.0482
     42 H          -0.6612   -3.8464   -2.1411 H       1  UNL1        0.0482
     43 H           0.5642   -3.1164   -1.0763 H       1  UNL1        0.0482
@<TRIPOS>BOND
     1     1     2    1
     2     1    29    1
     3     1    30    1
     4     1    31    1
     5     2     3    1
     6     2     4    1
     7     2    18    1
     8     4     5    2
     9     4     6   am
    10     6     7    1
    11     6    32    1
    12     7    16   ar
    13     7     8   ar
    14     8     9   ar
    15     8    33    1
    16     9    10    1
    17     9    14   ar
    18    10    11    1
    19    10    12    1
    20    10    13    1
    21    14    15   ar
    22    14    34    1
    23    15    16   ar
    24    15    35    1
    25    16    17    1
    26    18    19    1
    27    25    18    1
    28    19    24   ar
    29    19    20   ar
    30    20    21   ar
    31    20    36    1
    32    21    22   ar
    33    21    37    1
    34    22    23   ar
    35    22    38    1
    36    23    24   ar
    37    23    39    1
    38    24    40    1
    39    25    26    1
    40    25    27    2
    41    25    28    2
    42    26    41    1
    43    26    42    1
    44    26    43    1
