@<TRIPOS>MOLECULE
ZINC000096340609
 50 52 0 0 0
SMALL
GASTEIGER

@<TRIPOS>ATOM
      1 C          -0.0187    1.5258    0.0104 C.3     1  UNL1       -0.0560
      2 C           0.0021   -0.0041    0.0020 C.3     1  UNL1       -0.0127
      3 C           0.7421   -0.5109    1.2415 C.3     1  UNL1       -0.0560
      4 C          -1.4333   -0.5336    0.0129 C.3     1  UNL1       -0.0560
      5 C           0.7074   -0.4901   -1.2379 C.ar    1  UNL1       -0.0419
      6 C           0.0361   -1.2843   -2.1485 C.ar    1  UNL1       -0.0562
      7 C           0.6831   -1.7301   -3.2859 C.ar    1  UNL1       -0.0351
      8 C           2.0014   -1.3813   -3.5127 C.ar    1  UNL1        0.1055
      9 S           2.8263   -1.9500   -4.9621 S.O2    1  UNL1        0.0609
     10 O           4.2162   -1.9274   -4.6677 O.2     1  UNL1       -0.1528
     11 O           2.1396   -3.1214   -5.3811 O.2     1  UNL1       -0.1528
     12 N           2.5799   -0.8158   -6.1433 N.3     1  UNL1       -0.1765
     13 C           1.4148   -0.9037   -7.0342 C.3     1  UNL1        0.0212
     14 C           0.6577    0.4273   -6.9886 C.3     1  UNL1       -0.0272
     15 C           1.6204    1.5689   -7.3235 C.3     1  UNL1        0.0396
     16 C           0.8714    2.8766   -7.3130 C.ar    1  UNL1        0.2208
     17 N           0.2388    3.3945   -6.2987 N.ar    1  UNL1       -0.1118
     18 N          -0.2835    4.5169   -6.6492 N.ar    1  UNL1       -0.1032
     19 C          -0.0019    4.7533   -7.8990 C.ar    1  UNL1        0.3222
     20 C          -0.4243    5.9609   -8.6954 C.3     1  UNL1        0.4711
     21 F          -1.0823    6.8662   -7.8559 F       1  UNL1       -0.1619
     22 F           0.7056    6.5737   -9.2478 F       1  UNL1       -0.1619
     23 F          -1.2882    5.5639   -9.7216 F       1  UNL1       -0.1619
     24 O           0.7385    3.7251   -8.3462 O.2     1  UNL1       -0.4170
     25 C           2.7415    1.6150   -6.2828 C.3     1  UNL1       -0.0272
     26 C           3.5189    0.3009   -6.3164 C.3     1  UNL1        0.0212
     27 C           2.6723   -0.5859   -2.6027 C.ar    1  UNL1       -0.0351
     28 C           2.0241   -0.1370   -1.4673 C.ar    1  UNL1       -0.0562
     29 H           1.0039    1.9031    0.0027 H       1  UNL1        0.0238
     30 H          -0.5459    1.8868   -0.8726 H       1  UNL1        0.0238
     31 H          -0.5289    1.8773    0.9072 H       1  UNL1        0.0238
     32 H           0.2319   -0.1594    2.1383 H       1  UNL1        0.0238
     33 H           0.7568   -1.6008    1.2356 H       1  UNL1        0.0238
     34 H           1.7647   -0.1336    1.2338 H       1  UNL1        0.0238
     35 H          -1.9605   -0.1726   -0.8702 H       1  UNL1        0.0238
     36 H          -1.4185   -1.6235    0.0069 H       1  UNL1        0.0238
     37 H          -1.9435   -0.1821    0.9097 H       1  UNL1        0.0238
     38 H          -0.9938   -1.5568   -1.9713 H       1  UNL1        0.0621
     39 H           0.1588   -2.3512   -3.9970 H       1  UNL1        0.0637
     40 H           1.7481   -1.0998   -8.0533 H       1  UNL1        0.0444
     41 H           0.7596   -1.7084   -6.7006 H       1  UNL1        0.0444
     42 H          -0.1532    0.4097   -7.7168 H       1  UNL1        0.0285
     43 H           0.2475    0.5784   -5.9901 H       1  UNL1        0.0285
     44 H           2.0493    1.4040   -8.3119 H       1  UNL1        0.0397
     45 H           3.4137    2.4428   -6.5086 H       1  UNL1        0.0285
     46 H           2.3116    1.7550   -5.2909 H       1  UNL1        0.0285
     47 H           4.2537    0.2903   -5.5114 H       1  UNL1        0.0444
     48 H           4.0245    0.1999   -7.2768 H       1  UNL1        0.0444
     49 H           3.7021   -0.3131   -2.7802 H       1  UNL1        0.0637
     50 H           2.5483    0.4845   -0.7563 H       1  UNL1        0.0621
@<TRIPOS>BOND
     1     1     2    1
     2     1    29    1
     3     1    30    1
     4     1    31    1
     5     2     3    1
     6     2     4    1
     7     2     5    1
     8     3    32    1
     9     3    33    1
    10     3    34    1
    11     4    35    1
    12     4    36    1
    13     4    37    1
    14     5    28   ar
    15     5     6   ar
    16     6     7   ar
    17     6    38    1
    18     7     8   ar
    19     7    39    1
    20     8     9    1
    21     8    27   ar
    22     9    10    2
    23     9    11    2
    24     9    12    1
    25    12    26    1
    26    12    13    1
    27    13    14    1
    28    13    40    1
    29    13    41    1
    30    14    15    1
    31    14    42    1
    32    14    43    1
    33    15    16    1
    34    15    25    1
    35    15    44    1
    36    16    24   ar
    37    16    17   ar
    38    17    18   ar
    39    18    19   ar
    40    19    20    1
    41    19    24   ar
    42    20    21    1
    43    20    22    1
    44    20    23    1
    45    25    26    1
    46    25    45    1
    47    25    46    1
    48    26    47    1
    49    26    48    1
    50    27    28   ar
    51    27    49    1
    52    28    50    1
