@<TRIPOS>MOLECULE
ZINC000008861774
 43 45 0 0 0
SMALL
GASTEIGER

@<TRIPOS>ATOM
      1 C          -0.5762    1.4730   -1.5221 C.3     1  UNL1        0.0817
      2 O          -0.5493    0.0239   -1.6106 O.3     1  UNL1       -0.4668
      3 C           0.5179   -0.5989   -1.0865 C.2     1  UNL1        0.3263
      4 O           1.4005    0.0453   -0.5708 O.2     1  UNL1       -0.2490
      5 C           0.6154   -2.1018   -1.1412 C.3     1  UNL1        0.1328
      6 H          -0.3816   -2.5383   -1.0815 H       1  UNL1        0.0599
      7 C           1.4711   -2.6069    0.0195 C.3     1  UNL1        0.0003
      8 C           1.8460   -4.0517   -0.1801 C.ar    1  UNL1       -0.0408
      9 C           2.2399   -4.7756    0.9385 C.ar    1  UNL1       -0.0582
     10 C           2.6056   -6.1008    0.8239 C.ar    1  UNL1       -0.0615
     11 C           2.5822   -6.7159   -0.4137 C.ar    1  UNL1       -0.0614
     12 C           2.1881   -6.0003   -1.5260 C.ar    1  UNL1       -0.0570
     13 C           1.8143   -4.6686   -1.4109 C.ar    1  UNL1       -0.0284
     14 C           1.3688   -3.9524   -2.6611 C.3     1  UNL1        0.0467
     15 N           1.2650   -2.5134   -2.3966 N.3     1  UNL1       -0.1581
     16 S           1.8572   -1.3964   -3.4661 S.O2    1  UNL1        0.0633
     17 O           2.2637   -0.2761   -2.6922 O.2     1  UNL1       -0.1528
     18 O           2.7337   -2.0992   -4.3362 O.2     1  UNL1       -0.1528
     19 C           0.5041   -0.8531   -4.4554 C.ar    1  UNL1        0.1243
     20 C           0.0828    0.4613   -4.3883 C.ar    1  UNL1       -0.0223
     21 C          -0.9789    0.8877   -5.1645 C.ar    1  UNL1        0.0567
     22 C          -1.4379    2.3213   -5.0908 C.3     1  UNL1        0.4175
     23 F          -0.7437    3.0824   -6.0373 F       1  UNL1       -0.1659
     24 F          -2.8100    2.3858   -5.3559 F       1  UNL1       -0.1659
     25 F          -1.1860    2.8263   -3.8106 F       1  UNL1       -0.1659
     26 C          -1.6193   -0.0001   -6.0084 C.ar    1  UNL1       -0.0486
     27 C          -1.1987   -1.3152   -6.0764 C.ar    1  UNL1       -0.0410
     28 C          -0.1332   -1.7411   -5.3040 C.ar    1  UNL1        0.0673
     29 CL          0.3956   -3.3925   -5.3889 Cl      1  UNL1       -0.0815
     30 H          -0.5467    1.7736   -0.4748 H       1  UNL1        0.0661
     31 H           0.2883    1.8849   -2.0428 H       1  UNL1        0.0661
     32 H          -1.4902    1.8482   -1.9822 H       1  UNL1        0.0661
     33 H           2.3786   -2.0066    0.0836 H       1  UNL1        0.0334
     34 H           0.9098   -2.5072    0.9486 H       1  UNL1        0.0334
     35 H           2.2604   -4.2964    1.9062 H       1  UNL1        0.0620
     36 H           2.9097   -6.6562    1.6988 H       1  UNL1        0.0618
     37 H           2.8715   -7.7520   -0.5099 H       1  UNL1        0.0618
     38 H           2.1707   -6.4801   -2.4934 H       1  UNL1        0.0621
     39 H           2.0950   -4.1239   -3.4557 H       1  UNL1        0.0493
     40 H           0.3961   -4.3345   -2.9709 H       1  UNL1        0.0493
     41 H           0.5828    1.1555   -3.7291 H       1  UNL1        0.0643
     42 H          -2.4486    0.3336   -6.6144 H       1  UNL1        0.0623
     43 H          -1.6991   -2.0088   -6.7359 H       1  UNL1        0.0633
@<TRIPOS>BOND
     1     1     2    1
     2     1    30    1
     3     1    31    1
     4     1    32    1
     5     2     3    1
     6     3     4    2
     7     3     5    1
     8     5     6    1
     9     5    15    1
    10     5     7    1
    11     7     8    1
    12     7    33    1
    13     7    34    1
    14     8    13   ar
    15     8     9   ar
    16     9    10   ar
    17     9    35    1
    18    10    11   ar
    19    10    36    1
    20    11    12   ar
    21    11    37    1
    22    12    13   ar
    23    12    38    1
    24    13    14    1
    25    14    15    1
    26    14    39    1
    27    14    40    1
    28    16    15    1
    29    16    17    2
    30    16    18    2
    31    16    19    1
    32    19    28   ar
    33    19    20   ar
    34    20    21   ar
    35    20    41    1
    36    21    22    1
    37    21    26   ar
    38    22    23    1
    39    22    24    1
    40    22    25    1
    41    26    27   ar
    42    26    42    1
    43    27    28   ar
    44    27    43    1
    45    28    29    1
