@<TRIPOS>MOLECULE
ZINC000000842948
 54 56 0 0 0
SMALL
GASTEIGER

@<TRIPOS>ATOM
      1 C          -3.5573   -9.2274   -0.1152 C.3     1  UNL1       -0.0397
      2 C          -2.6433   -8.0296   -0.0862 C.ar    1  UNL1       -0.0503
      3 C          -2.3111   -7.4428    1.1206 C.ar    1  UNL1       -0.0570
      4 C          -1.4726   -6.3441    1.1472 C.ar    1  UNL1       -0.0351
      5 C          -0.9661   -5.8324   -0.0329 C.ar    1  UNL1        0.1055
      6 S           0.1021   -4.4315    0.0011 S.O2    1  UNL1        0.0616
      7 O          -0.0100   -3.8105   -1.2721 O.2     1  UNL1       -0.1528
      8 O          -0.1626   -3.7546    1.2221 O.2     1  UNL1       -0.1528
      9 N           1.6535   -5.0006    0.1087 N.3     1  UNL1       -0.1635
     10 C           2.2154   -5.3532    1.4149 C.3     1  UNL1        0.0971
     11 C           2.0395   -6.8305    1.6553 C.2     1  UNL1        0.2289
     12 O           1.4980   -7.5208    0.8180 O.2     1  UNL1       -0.2743
     13 N           2.4838   -7.3844    2.8008 N.am    1  UNL1       -0.3117
     14 C           2.3127   -8.8205    3.0344 C.3     1  UNL1        0.0379
     15 C           2.8996   -9.1887    4.3986 C.3     1  UNL1        0.0742
     16 H           2.4007   -8.6272    5.1884 H       1  UNL1        0.0611
     17 C           2.7602  -10.7112    4.6508 C.3     1  UNL1       -0.0231
     18 C           3.9139  -10.9492    5.6628 C.3     1  UNL1       -0.0271
     19 C           4.9816   -9.9415    5.1853 C.3     1  UNL1        0.0482
     20 O           4.3125   -8.9308    4.4196 O.3     1  UNL1       -0.3750
     21 C           2.4641   -5.1515   -1.1023 C.3     1  UNL1        0.0460
     22 C           3.3251   -3.9284   -1.2860 C.ar    1  UNL1       -0.0317
     23 C           2.8966   -2.8976   -2.1012 C.ar    1  UNL1       -0.0573
     24 C           3.6864   -1.7757   -2.2698 C.ar    1  UNL1       -0.0615
     25 C           4.9045   -1.6844   -1.6228 C.ar    1  UNL1       -0.0617
     26 C           5.3327   -2.7149   -0.8069 C.ar    1  UNL1       -0.0615
     27 C           4.5410   -3.8349   -0.6349 C.ar    1  UNL1       -0.0573
     28 C          -1.2973   -6.4200   -1.2395 C.ar    1  UNL1       -0.0351
     29 C          -2.1326   -7.5211   -1.2658 C.ar    1  UNL1       -0.0570
     30 H          -2.9644  -10.1388   -0.0385 H       1  UNL1        0.0278
     31 H          -4.2523   -9.1745    0.7228 H       1  UNL1        0.0278
     32 H          -4.1163   -9.2353   -1.0509 H       1  UNL1        0.0278
     33 H          -2.7068   -7.8426    2.0425 H       1  UNL1        0.0621
     34 H          -1.2136   -5.8852    2.0899 H       1  UNL1        0.0637
     35 H           3.2769   -5.1061    1.4325 H       1  UNL1        0.0539
     36 H           1.6993   -4.7941    2.1954 H       1  UNL1        0.0539
     37 H           2.9169   -6.8323    3.4704 H       1  UNL1        0.1488
     38 H           1.2512   -9.0676    3.0169 H       1  UNL1        0.0487
     39 H           2.8288   -9.3797    2.2540 H       1  UNL1        0.0487
     40 H           1.7933  -10.9490    5.0943 H       1  UNL1        0.0291
     41 H           2.9194  -11.2776    3.7333 H       1  UNL1        0.0291
     42 H           3.5920  -10.7209    6.6789 H       1  UNL1        0.0288
     43 H           4.2864  -11.9712    5.5931 H       1  UNL1        0.0288
     44 H           5.4723   -9.4871    6.0461 H       1  UNL1        0.0560
     45 H           5.7186  -10.4503    4.5640 H       1  UNL1        0.0560
     46 H           3.0994   -6.0321   -1.0069 H       1  UNL1        0.0493
     47 H           1.8091   -5.2678   -1.9657 H       1  UNL1        0.0493
     48 H           1.9448   -2.9689   -2.6067 H       1  UNL1        0.0621
     49 H           3.3518   -0.9706   -2.9072 H       1  UNL1        0.0618
     50 H           5.5219   -0.8082   -1.7550 H       1  UNL1        0.0618
     51 H           6.2846   -2.6437   -0.3016 H       1  UNL1        0.0618
     52 H           4.8755   -4.6400    0.0025 H       1  UNL1        0.0621
     53 H          -0.9012   -6.0205   -2.1614 H       1  UNL1        0.0637
     54 H          -2.3914   -7.9802   -2.2085 H       1  UNL1        0.0621
@<TRIPOS>BOND
     1     1     2    1
     2     1    30    1
     3     1    31    1
     4     1    32    1
     5     2    29   ar
     6     2     3   ar
     7     3     4   ar
     8     3    33    1
     9     4     5   ar
    10     4    34    1
    11     5     6    1
    12     5    28   ar
    13     6     7    2
    14     6     8    2
    15     6     9    1
    16     9    10    1
    17     9    21    1
    18    10    11    1
    19    10    35    1
    20    10    36    1
    21    11    12    2
    22    11    13   am
    23    13    14    1
    24    13    37    1
    25    14    15    1
    26    14    38    1
    27    14    39    1
    28    15    16    1
    29    15    20    1
    30    15    17    1
    31    17    18    1
    32    17    40    1
    33    17    41    1
    34    18    19    1
    35    18    42    1
    36    18    43    1
    37    19    20    1
    38    19    44    1
    39    19    45    1
    40    21    22    1
    41    21    46    1
    42    21    47    1
    43    22    27   ar
    44    22    23   ar
    45    23    24   ar
    46    23    48    1
    47    24    25   ar
    48    24    49    1
    49    25    26   ar
    50    25    50    1
    51    26    27   ar
    52    26    51    1
    53    27    52    1
    54    28    29   ar
    55    28    53    1
    56    29    54    1
