@<TRIPOS>MOLECULE
ZINC000088059570
 36 37 0 0 0
SMALL
GASTEIGER

@<TRIPOS>ATOM
      1 C          -0.0187    1.5258    0.0104 C.3     1  UNL1       -0.0204
      2 C           0.0021   -0.0041    0.0020 C.3     1  UNL1       -0.0108
      3 H           0.5122   -0.3557   -0.8947 H       1  UNL1        0.0861
      4 C          -1.4354   -0.5346    0.0133 C.3     1  UNL1        0.0633
      5 N          -1.3907   -1.9998    0.1368 N.3     1  UNL1       -0.1662
      6 S          -2.2437   -2.9682   -0.9010 S.O2    1  UNL1        0.0612
      7 O          -2.4476   -4.2006   -0.2237 O.2     1  UNL1       -0.1528
      8 O          -3.3080   -2.1742   -1.4073 O.2     1  UNL1       -0.1528
      9 C          -1.1913   -3.3207   -2.2695 C.ar    1  UNL1        0.1055
     10 C          -1.1864   -2.4852   -3.3708 C.ar    1  UNL1       -0.0348
     11 C          -0.3608   -2.7618   -4.4445 C.ar    1  UNL1       -0.0483
     12 C           0.4603   -3.8735   -4.4166 C.ar    1  UNL1        0.0549
     13 C           1.3601   -4.1752   -5.5872 C.3     1  UNL1        0.4174
     14 F           2.5961   -3.5475   -5.3993 F       1  UNL1       -0.1659
     15 F           1.5494   -5.5579   -5.6856 F       1  UNL1       -0.1659
     16 F           0.7700   -3.7005   -6.7635 F       1  UNL1       -0.1659
     17 C           0.4564   -4.7081   -3.3147 C.ar    1  UNL1       -0.0483
     18 C          -0.3664   -4.4295   -2.2394 C.ar    1  UNL1       -0.0348
     19 C          -0.5663   -2.5804    1.2080 C.3     1  UNL1        0.0607
     20 C           0.8301   -1.9533    1.1403 C.3     1  UNL1       -0.0186
     21 N           0.7119   -0.4906    1.1918 N.4     1  UNL1        0.2309
     22 H           1.6334   -0.0809    1.2233 H       1  UNL1        0.2017
     23 H           0.1985   -0.2248    2.0187 H       1  UNL1        0.2017
     24 H           1.0039    1.9031    0.0027 H       1  UNL1        0.0284
     25 H          -0.5459    1.8868   -0.8726 H       1  UNL1        0.0284
     26 H          -0.5289    1.8773    0.9072 H       1  UNL1        0.0284
     27 H          -1.9751   -0.1119    0.8607 H       1  UNL1        0.0500
     28 H          -1.9343   -0.2604   -0.9162 H       1  UNL1        0.0500
     29 H          -1.8280   -1.6167   -3.3926 H       1  UNL1        0.0637
     30 H          -0.3575   -2.1095   -5.3052 H       1  UNL1        0.0624
     31 H           1.0982   -5.5765   -3.2927 H       1  UNL1        0.0624
     32 H          -0.3694   -5.0816   -1.3785 H       1  UNL1        0.0637
     33 H          -1.0184   -2.3643    2.1760 H       1  UNL1        0.0497
     34 H          -0.4907   -3.6588    1.0683 H       1  UNL1        0.0497
     35 H           1.4254   -2.2998    1.9850 H       1  UNL1        0.0827
     36 H           1.3152   -2.2461    0.2092 H       1  UNL1        0.0827
@<TRIPOS>UNITY_ATOM_ATTR
21 1
charge 1
@<TRIPOS>BOND
     1     1     2    1
     2     1    24    1
     3     1    25    1
     4     1    26    1
     5     2     3    1
     6     2    21    1
     7     2     4    1
     8     4     5    1
     9     4    27    1
    10     4    28    1
    11     6     5    1
    12     5    19    1
    13     6     7    2
    14     6     8    2
    15     6     9    1
    16     9    18   ar
    17     9    10   ar
    18    10    11   ar
    19    10    29    1
    20    11    12   ar
    21    11    30    1
    22    12    13    1
    23    12    17   ar
    24    13    14    1
    25    13    15    1
    26    13    16    1
    27    17    18   ar
    28    17    31    1
    29    18    32    1
    30    19    20    1
    31    19    33    1
    32    19    34    1
    33    20    21    1
    34    20    35    1
    35    20    36    1
    36    21    22    1
    37    21    23    1
