@<TRIPOS>MOLECULE
ZINC000585146898
 48 49 0 0 0
SMALL
GASTEIGER

@<TRIPOS>ATOM
      1 C          -0.0187    1.5258    0.0104 C.3     1  UNL1       -0.0612
      2 C           0.0021   -0.0041    0.0020 C.3     1  UNL1       -0.0273
      3 C           0.7421   -0.5109    1.2415 C.3     1  UNL1       -0.0612
      4 C          -1.4333   -0.5336    0.0129 C.3     1  UNL1        0.0684
      5 S          -1.4124   -2.3405   -0.1461 S.O2    1  UNL1       -0.0267
      6 O          -0.8980   -2.6764   -1.4274 O.2     1  UNL1       -0.1740
      7 O          -0.8007   -2.8899    1.0129 O.2     1  UNL1       -0.1740
      8 C          -3.1814   -2.7404   -0.1106 C.3     1  UNL1        0.0912
      9 H          -3.6127   -2.3989    0.8304 H       1  UNL1        0.0549
     10 C          -3.8859   -2.0446   -1.2776 C.3     1  UNL1       -0.0283
     11 C          -5.3838   -2.3547   -1.2294 C.3     1  UNL1       -0.0368
     12 C          -5.5931   -3.8657   -1.3698 C.3     1  UNL1        0.0206
     13 N          -4.8017   -4.5506   -0.3387 N.3     1  UNL1       -0.1748
     14 S          -5.5143   -5.6347    0.6904 S.O2    1  UNL1        0.0609
     15 O          -4.6936   -5.6871    1.8493 O.2     1  UNL1       -0.1528
     16 O          -6.8952   -5.3019    0.7304 O.2     1  UNL1       -0.1528
     17 C          -5.4068   -7.2217   -0.0676 C.ar    1  UNL1        0.1055
     18 C          -6.4164   -7.6574   -0.9052 C.ar    1  UNL1       -0.0348
     19 C          -6.3321   -8.9025   -1.4999 C.ar    1  UNL1       -0.0483
     20 C          -5.2379   -9.7116   -1.2573 C.ar    1  UNL1        0.0549
     21 C          -5.1461  -11.0691   -1.9052 C.3     1  UNL1        0.4174
     22 F          -4.4936  -10.9546   -3.1374 F       1  UNL1       -0.1659
     23 F          -4.4259  -11.9345   -1.0748 F       1  UNL1       -0.1659
     24 F          -6.4337  -11.5785   -2.1049 F       1  UNL1       -0.1659
     25 C          -4.2276   -9.2754   -0.4207 C.ar    1  UNL1       -0.0483
     26 C          -4.3101   -8.0288    0.1710 C.ar    1  UNL1       -0.0348
     27 C          -3.3658   -4.2558   -0.2375 C.3     1  UNL1        0.0427
     28 H           1.0039    1.9031    0.0027 H       1  UNL1        0.0233
     29 H          -0.5459    1.8868   -0.8726 H       1  UNL1        0.0233
     30 H          -0.5289    1.8773    0.9072 H       1  UNL1        0.0233
     31 H           0.5123   -0.3556   -0.8948 H       1  UNL1        0.0311
     32 H           0.2319   -0.1594    2.1383 H       1  UNL1        0.0233
     33 H           0.7568   -1.6008    1.2356 H       1  UNL1        0.0233
     34 H           1.7647   -0.1336    1.2338 H       1  UNL1        0.0233
     35 H          -1.9156   -0.2570    0.9504 H       1  UNL1        0.0502
     36 H          -1.9862   -0.1019   -0.8214 H       1  UNL1        0.0502
     37 H          -3.7354   -0.9677   -1.2026 H       1  UNL1        0.0284
     38 H          -3.4706   -2.4044   -2.2189 H       1  UNL1        0.0284
     39 H          -5.7947   -2.0174   -0.2779 H       1  UNL1        0.0279
     40 H          -5.8883   -1.8400   -2.0471 H       1  UNL1        0.0279
     41 H          -6.6488   -4.1022   -1.2373 H       1  UNL1        0.0444
     42 H          -5.2651   -4.1898   -2.3575 H       1  UNL1        0.0444
     43 H          -7.2713   -7.0253   -1.0948 H       1  UNL1        0.0637
     44 H          -7.1212   -9.2432   -2.1538 H       1  UNL1        0.0624
     45 H          -3.3725   -9.9074   -0.2314 H       1  UNL1        0.0624
     46 H          -3.5208   -7.6879    0.8246 H       1  UNL1        0.0637
     47 H          -2.8557   -4.6115   -1.1327 H       1  UNL1        0.0463
     48 H          -2.9524   -4.7499    0.6417 H       1  UNL1        0.0463
@<TRIPOS>BOND
     1     1     2    1
     2     1    28    1
     3     1    29    1
     4     1    30    1
     5     2     3    1
     6     2     4    1
     7     2    31    1
     8     3    32    1
     9     3    33    1
    10     3    34    1
    11     4     5    1
    12     4    35    1
    13     4    36    1
    14     5     6    2
    15     5     7    2
    16     5     8    1
    17     8     9    1
    18     8    27    1
    19     8    10    1
    20    10    11    1
    21    10    37    1
    22    10    38    1
    23    11    12    1
    24    11    39    1
    25    11    40    1
    26    12    13    1
    27    12    41    1
    28    12    42    1
    29    14    13    1
    30    13    27    1
    31    14    15    2
    32    14    16    2
    33    14    17    1
    34    17    26   ar
    35    17    18   ar
    36    18    19   ar
    37    18    43    1
    38    19    20   ar
    39    19    44    1
    40    20    21    1
    41    20    25   ar
    42    21    22    1
    43    21    23    1
    44    21    24    1
    45    25    26   ar
    46    25    45    1
    47    26    46    1
    48    27    47    1
    49    27    48    1
