@<TRIPOS>MOLECULE
ZINC000096319974
 48 50 0 0 0
SMALL
GASTEIGER

@<TRIPOS>ATOM
      1 C           0.0145    1.5034    0.0106 C.3     1  UNL1       -0.0225
      2 C           0.0238   -0.0035    0.0023 C.ar    1  UNL1        0.0403
      3 C           0.0232   -0.7852   -1.1040 C.ar    1  UNL1        0.1292
      4 S           0.0122   -0.2206   -2.7731 S.O2    1  UNL1        0.0628
      5 O          -0.5293   -1.2792   -3.5512 O.2     1  UNL1       -0.1528
      6 O          -0.5402    1.0884   -2.7502 O.2     1  UNL1       -0.1528
      7 N           1.5908   -0.0539   -3.2446 N.3     1  UNL1       -0.1765
      8 C           2.4044    1.1621   -3.0999 C.3     1  UNL1        0.0205
      9 C           3.7938    0.8578   -3.6987 C.3     1  UNL1       -0.0373
     10 C           3.5068   -0.3279   -4.6575 C.3     1  UNL1       -0.0373
     11 C           2.4151   -1.1022   -3.8731 C.3     1  UNL1        0.0205
     12 C           0.0335   -2.1197   -0.6864 C.ar    1  UNL1        0.0059
     13 C           0.0371   -3.3363   -1.5757 C.3     1  UNL1       -0.0357
     14 C           0.0404   -2.1126    0.6925 C.ar    1  UNL1        0.1072
     15 C           0.0521   -3.2910    1.5653 C.2     1  UNL1        0.2648
     16 O           0.0567   -4.4073    1.0805 O.2     1  UNL1       -0.2682
     17 N           0.0579   -3.1378    2.9043 N.am    1  UNL1       -0.2803
     18 C          -0.0286   -4.2581    3.7366 C.ar    1  UNL1        0.0342
     19 C          -0.7254   -4.1822    4.9355 C.ar    1  UNL1       -0.0404
     20 C          -0.8089   -5.2907    5.7553 C.ar    1  UNL1       -0.0595
     21 C          -0.1994   -6.4748    5.3838 C.ar    1  UNL1       -0.0500
     22 C           0.4957   -6.5536    4.1906 C.ar    1  UNL1        0.0566
     23 C           1.1589   -7.8461    3.7899 C.3     1  UNL1        0.4175
     24 F           0.9337   -8.8115    4.7771 F       1  UNL1       -0.1659
     25 F           0.6239   -8.2878    2.5751 F       1  UNL1       -0.1659
     26 F           2.5350   -7.6390    3.6456 F       1  UNL1       -0.1659
     27 C           0.5774   -5.4511    3.3633 C.ar    1  UNL1       -0.0288
     28 N           0.0402   -0.7979    1.1004 N.ar    1  UNL1       -0.3528
     29 H           1.0399    1.8732    0.0025 H       1  UNL1        0.0292
     30 H          -0.5104    1.8684   -0.8722 H       1  UNL1        0.0292
     31 H          -0.4927    1.8586    0.9077 H       1  UNL1        0.0292
     32 H           1.9396    1.9858   -3.6417 H       1  UNL1        0.0444
     33 H           2.5035    1.4185   -2.0451 H       1  UNL1        0.0444
     34 H           4.1723    1.7177   -4.2513 H       1  UNL1        0.0278
     35 H           4.4939    0.5614   -2.9176 H       1  UNL1        0.0278
     36 H           3.1266    0.0273   -5.6152 H       1  UNL1        0.0278
     37 H           4.3962   -0.9427   -4.7957 H       1  UNL1        0.0278
     38 H           2.8720   -1.7383   -3.1150 H       1  UNL1        0.0444
     39 H           1.8091   -1.6986   -4.5550 H       1  UNL1        0.0444
     40 H           1.0656   -3.6231   -1.7949 H       1  UNL1        0.0279
     41 H          -0.4692   -4.1580   -1.0693 H       1  UNL1        0.0279
     42 H          -0.4825   -3.1077   -2.5062 H       1  UNL1        0.0279
     43 H           0.1221   -2.2504    3.2906 H       1  UNL1        0.1552
     44 H          -1.2012   -3.2574    5.2266 H       1  UNL1        0.0636
     45 H          -1.3506   -5.2324    6.6878 H       1  UNL1        0.0618
     46 H          -0.2659   -7.3400    6.0268 H       1  UNL1        0.0623
     47 H           1.1204   -5.5132    2.4318 H       1  UNL1        0.0642
     48 H           0.0447   -0.4911    2.0206 H       1  UNL1        0.1658
@<TRIPOS>BOND
     1     1     2    1
     2     1    29    1
     3     1    30    1
     4     1    31    1
     5     2    28   ar
     6     2     3   ar
     7     3     4    1
     8     3    12   ar
     9     4     5    2
    10     4     6    2
    11     4     7    1
    12     7    11    1
    13     7     8    1
    14     8     9    1
    15     8    32    1
    16     8    33    1
    17     9    10    1
    18     9    34    1
    19     9    35    1
    20    10    11    1
    21    10    36    1
    22    10    37    1
    23    11    38    1
    24    11    39    1
    25    12    13    1
    26    12    14   ar
    27    13    40    1
    28    13    41    1
    29    13    42    1
    30    14    15    1
    31    14    28   ar
    32    15    16    2
    33    15    17   am
    34    17    18    1
    35    17    43    1
    36    18    27   ar
    37    18    19   ar
    38    19    20   ar
    39    19    44    1
    40    20    21   ar
    41    20    45    1
    42    21    22   ar
    43    21    46    1
    44    22    23    1
    45    22    27   ar
    46    23    24    1
    47    23    25    1
    48    23    26    1
    49    27    47    1
    50    28    48    1
