@<TRIPOS>MOLECULE
ZINC000014099802
 53 55 0 0 0
SMALL
GASTEIGER

@<TRIPOS>ATOM
      1 O           0.0021   -0.0041    0.0020 O.2     1  UNL1       -0.1528
      2 S          -0.0172    1.4168    0.0098 S.O2    1  UNL1        0.0609
      3 O           1.1617    2.2101    0.0028 O.2     1  UNL1       -0.1528
      4 C          -0.9567    1.9094   -1.3970 C.ar    1  UNL1        0.1055
      5 C          -1.8848    1.0442   -1.9458 C.ar    1  UNL1       -0.0348
      6 C          -2.6219    1.4307   -3.0496 C.ar    1  UNL1       -0.0483
      7 C          -2.4313    2.6825   -3.6042 C.ar    1  UNL1        0.0549
      8 C          -3.2345    3.1036   -4.8078 C.3     1  UNL1        0.4174
      9 F          -4.4138    3.7273   -4.3864 F       1  UNL1       -0.1659
     10 F          -2.4843    3.9973   -5.5796 F       1  UNL1       -0.1659
     11 F          -3.5510    1.9771   -5.5746 F       1  UNL1       -0.1659
     12 C          -1.5042    3.5481   -3.0546 C.ar    1  UNL1       -0.0483
     13 C          -0.7699    3.1631   -1.9485 C.ar    1  UNL1       -0.0348
     14 N          -0.8748    1.8654    1.3536 N.3     1  UNL1       -0.1740
     15 C          -0.6796    3.1911    1.9573 C.3     1  UNL1        0.0350
     16 C          -2.0388    3.8966    2.0404 C.3     1  UNL1        0.0360
     17 N          -3.0091    2.9765    2.6503 N.3     1  UNL1       -0.1639
     18 S          -3.8674    3.4255    3.9934 S.O2    1  UNL1        0.0996
     19 O          -4.2585    2.2224    4.6404 O.2     1  UNL1       -0.1409
     20 O          -3.1076    4.4411    4.6341 O.2     1  UNL1       -0.1409
     21 N          -5.2614    4.1471    3.4656 N.3     1  UNL1       -0.1664
     22 C          -5.2589    5.5745    3.2360 C.3     1  UNL1        0.0215
     23 C          -5.6482    6.3114    4.5412 C.3     1  UNL1       -0.0385
     24 C          -7.0758    6.1120    4.8342 C.3     1  UNL1       -0.0518
     25 C          -7.4681    4.6598    5.0889 C.3     1  UNL1       -0.0518
     26 C          -7.7391    3.9763    3.7714 C.3     1  UNL1       -0.0385
     27 C          -6.4535    3.3055    3.2434 C.3     1  UNL1        0.0215
     28 C          -3.2042    1.6508    2.0465 C.3     1  UNL1        0.0360
     29 C          -1.8490    0.9474    1.9601 C.3     1  UNL1        0.0350
     30 H          -2.0336    0.0662   -1.5125 H       1  UNL1        0.0637
     31 H          -3.3464    0.7545   -3.4788 H       1  UNL1        0.0624
     32 H          -1.3556    4.5263   -3.4877 H       1  UNL1        0.0624
     33 H          -0.0456    3.8394   -1.5191 H       1  UNL1        0.0637
     34 H          -0.2636    3.0794    2.9586 H       1  UNL1        0.0457
     35 H           0.0000    3.7780    1.3395 H       1  UNL1        0.0457
     36 H          -1.9489    4.7928    2.6543 H       1  UNL1        0.0457
     37 H          -2.3719    4.1682    1.0387 H       1  UNL1        0.0457
     38 H          -4.2633    5.8902    2.9241 H       1  UNL1        0.0444
     39 H          -5.9780    5.8176    2.4537 H       1  UNL1        0.0444
     40 H          -5.0526    5.9218    5.3668 H       1  UNL1        0.0278
     41 H          -5.4487    7.3769    4.4273 H       1  UNL1        0.0278
     42 H          -7.3337    6.6998    5.7151 H       1  UNL1        0.0266
     43 H          -7.6574    6.4848    3.9911 H       1  UNL1        0.0266
     44 H          -6.6547    4.1482    5.6035 H       1  UNL1        0.0266
     45 H          -8.3660    4.6286    5.7062 H       1  UNL1        0.0266
     46 H          -8.5114    3.2196    3.9088 H       1  UNL1        0.0278
     47 H          -8.0830    4.7135    3.0458 H       1  UNL1        0.0278
     48 H          -6.5661    3.1155    2.1760 H       1  UNL1        0.0444
     49 H          -6.3136    2.3547    3.7576 H       1  UNL1        0.0444
     50 H          -3.8838    1.0639    2.6644 H       1  UNL1        0.0457
     51 H          -3.6202    1.7625    1.0453 H       1  UNL1        0.0457
     52 H          -1.9405    0.0514    1.3461 H       1  UNL1        0.0457
     53 H          -1.5136    0.6754    2.9609 H       1  UNL1        0.0457
@<TRIPOS>BOND
     1     1     2    2
     2     2     3    2
     3     2     4    1
     4     2    14    1
     5     4    13   ar
     6     4     5   ar
     7     5     6   ar
     8     5    30    1
     9     6     7   ar
    10     6    31    1
    11     7     8    1
    12     7    12   ar
    13     8     9    1
    14     8    10    1
    15     8    11    1
    16    12    13   ar
    17    12    32    1
    18    13    33    1
    19    14    29    1
    20    14    15    1
    21    15    16    1
    22    15    34    1
    23    15    35    1
    24    16    17    1
    25    16    36    1
    26    16    37    1
    27    18    17    1
    28    17    28    1
    29    18    19    2
    30    18    20    2
    31    18    21    1
    32    21    27    1
    33    21    22    1
    34    22    23    1
    35    22    38    1
    36    22    39    1
    37    23    24    1
    38    23    40    1
    39    23    41    1
    40    24    25    1
    41    24    42    1
    42    24    43    1
    43    25    26    1
    44    25    44    1
    45    25    45    1
    46    26    27    1
    47    26    46    1
    48    26    47    1
    49    27    48    1
    50    27    49    1
    51    28    29    1
    52    28    50    1
    53    28    51    1
    54    29    52    1
    55    29    53    1
