@<TRIPOS>MOLECULE
ZINC000065385090
 43 44 0 0 0
SMALL
GASTEIGER

@<TRIPOS>ATOM
      1 C           0.4822   -0.1646    1.5147 C.3     1  UNL1       -0.0120
      2 N           0.0073   -0.0349    0.1307 N.3     1  UNL1       -0.2940
      3 C           0.9746   -0.6095   -0.8138 C.3     1  UNL1       -0.0120
      4 C          -1.3165   -0.6508   -0.0315 C.3     1  UNL1        0.1124
      5 H          -1.2604   -1.7071    0.2315 H       1  UNL1        0.0609
      6 C          -2.3059    0.0399    0.8713 C.2     1  UNL1        0.2348
      7 O          -2.1327    1.1978    1.1875 O.2     1  UNL1       -0.2737
      8 N          -3.3832   -0.6293    1.3274 N.am    1  UNL1       -0.3122
      9 C          -4.3451    0.0421    2.2051 C.3     1  UNL1        0.0275
     10 C          -5.4646   -0.9329    2.5753 C.3     1  UNL1        0.0317
     11 N          -6.4264   -0.2615    3.4530 N.am    1  UNL1       -0.2827
     12 C          -6.3564   -0.2214    4.9213 C.3     1  UNL1        0.0318
     13 C          -7.5947    0.6010    5.3277 C.3     1  UNL1        0.0289
     14 N          -8.2310    0.9369    4.0452 N.am    1  UNL1       -0.2977
     15 C          -7.5062    0.4183    3.0452 C.2     1  UNL1        0.3023
     16 O          -7.8062    0.5453    1.8738 O.2     1  UNL1       -0.2526
     17 C          -1.7625   -0.5128   -1.4644 C.ar    1  UNL1       -0.0188
     18 C          -1.6303    0.6993   -2.1154 C.ar    1  UNL1       -0.0564
     19 C          -2.0392    0.8273   -3.4300 C.ar    1  UNL1       -0.0587
     20 C          -2.5804   -0.2565   -4.0945 C.ar    1  UNL1       -0.0264
     21 C          -2.7129   -1.4715   -3.4434 C.ar    1  UNL1        0.1237
     22 F          -3.2420   -2.5320   -4.0921 F       1  UNL1       -0.2055
     23 C          -2.2984   -1.6000   -2.1288 C.ar    1  UNL1       -0.0213
     24 H           1.4677    0.2924    1.6050 H       1  UNL1        0.0391
     25 H          -0.2141    0.3376    2.1864 H       1  UNL1        0.0391
     26 H           0.5455   -1.2200    1.7798 H       1  UNL1        0.0391
     27 H           1.1162   -1.6670   -0.5905 H       1  UNL1        0.0391
     28 H           0.5982   -0.5002   -1.8309 H       1  UNL1        0.0391
     29 H           1.9271   -0.0878   -0.7208 H       1  UNL1        0.0391
     30 H          -3.5218   -1.5555    1.0745 H       1  UNL1        0.1488
     31 H          -3.8391    0.3753    3.1112 H       1  UNL1        0.0477
     32 H          -4.7692    0.9030    1.6882 H       1  UNL1        0.0477
     33 H          -5.9706   -1.2661    1.6692 H       1  UNL1        0.0480
     34 H          -5.0405   -1.7938    3.0921 H       1  UNL1        0.0480
     35 H          -6.4133   -1.2283    5.3347 H       1  UNL1        0.0480
     36 H          -5.4430    0.2761    5.2473 H       1  UNL1        0.0480
     37 H          -8.2665    0.0023    5.9428 H       1  UNL1        0.0478
     38 H          -7.2961    1.5067    5.8555 H       1  UNL1        0.0478
     39 H          -9.0441    1.4552    3.9399 H       1  UNL1        0.1503
     40 H          -1.2077    1.5471   -1.5967 H       1  UNL1        0.0621
     41 H          -1.9357    1.7750   -3.9376 H       1  UNL1        0.0619
     42 H          -2.9003   -0.1561   -5.1211 H       1  UNL1        0.0646
     43 H          -2.4009   -2.5472   -1.6201 H       1  UNL1        0.0649
@<TRIPOS>BOND
     1     1     2    1
     2     1    24    1
     3     1    25    1
     4     1    26    1
     5     2     3    1
     6     2     4    1
     7     3    27    1
     8     3    28    1
     9     3    29    1
    10     4     5    1
    11     4     6    1
    12     4    17    1
    13     6     7    2
    14     6     8   am
    15     8     9    1
    16     8    30    1
    17     9    10    1
    18     9    31    1
    19     9    32    1
    20    10    11    1
    21    10    33    1
    22    10    34    1
    23    11    15   am
    24    11    12    1
    25    12    13    1
    26    12    35    1
    27    12    36    1
    28    13    14    1
    29    13    37    1
    30    13    38    1
    31    14    15   am
    32    14    39    1
    33    15    16    2
    34    17    23   ar
    35    17    18   ar
    36    18    19   ar
    37    18    40    1
    38    19    20   ar
    39    19    41    1
    40    20    21   ar
    41    20    42    1
    42    21    22    1
    43    21    23   ar
    44    23    43    1
