@<TRIPOS>MOLECULE
ZINC000004888779
 49 50 0 0 0
SMALL
GASTEIGER

@<TRIPOS>ATOM
      1 C          -0.0187    1.5258    0.0104 C.3     1  UNL1       -0.0518
      2 C           0.0021   -0.0041    0.0020 C.3     1  UNL1        0.0386
      3 C           0.7421   -0.5109    1.2415 C.3     1  UNL1       -0.0518
      4 C          -1.4333   -0.5336    0.0129 C.3     1  UNL1       -0.0518
      5 C           0.7074   -0.4901   -1.2379 C.2     1  UNL1        0.2186
      6 O           1.1500    0.3085   -2.0362 O.2     1  UNL1       -0.2752
      7 N           0.8465   -1.8122   -1.4596 N.am    1  UNL1       -0.3119
      8 C           1.5322   -2.2846   -2.6649 C.3     1  UNL1        0.0256
      9 C           3.0416   -2.3153   -2.4139 C.3     1  UNL1       -0.0200
     10 C           3.7577   -2.7766   -3.6872 C.3     1  UNL1        0.0222
     11 N           3.1898   -4.0644   -4.1089 N.3     1  UNL1       -0.1765
     12 S           4.1699   -5.3728   -4.3729 S.O2    1  UNL1        0.0609
     13 O           3.4632   -6.2317   -5.2572 O.2     1  UNL1       -0.1528
     14 O           5.4619   -4.8551   -4.6593 O.2     1  UNL1       -0.1528
     15 C           4.3083   -6.2378   -2.8440 C.ar    1  UNL1        0.1055
     16 C           5.3165   -5.9138   -1.9554 C.ar    1  UNL1       -0.0348
     17 C           5.4250   -6.5924   -0.7560 C.ar    1  UNL1       -0.0483
     18 C           4.5252   -7.5945   -0.4449 C.ar    1  UNL1        0.0549
     19 C           4.6438   -8.3346    0.8625 C.3     1  UNL1        0.4174
     20 F           3.8909   -7.6765    1.8409 F       1  UNL1       -0.1659
     21 F           4.1648   -9.6395    0.7048 F       1  UNL1       -0.1659
     22 F           5.9859   -8.3748    1.2554 F       1  UNL1       -0.1659
     23 C           3.5162   -7.9175   -1.3329 C.ar    1  UNL1       -0.0483
     24 C           3.4053   -7.2364   -2.5307 C.ar    1  UNL1       -0.0348
     25 C           1.7357   -4.1694   -4.2915 C.3     1  UNL1        0.0222
     26 C           1.0423   -3.6925   -3.0115 C.3     1  UNL1       -0.0200
     27 H           1.0039    1.9031    0.0027 H       1  UNL1        0.0239
     28 H          -0.5459    1.8868   -0.8726 H       1  UNL1        0.0239
     29 H          -0.5289    1.8773    0.9072 H       1  UNL1        0.0239
     30 H           0.2319   -0.1594    2.1383 H       1  UNL1        0.0239
     31 H           0.7568   -1.6008    1.2356 H       1  UNL1        0.0239
     32 H           1.7647   -0.1336    1.2338 H       1  UNL1        0.0239
     33 H          -1.9605   -0.1726   -0.8702 H       1  UNL1        0.0239
     34 H          -1.4185   -1.6235    0.0069 H       1  UNL1        0.0239
     35 H          -1.9435   -0.1821    0.9097 H       1  UNL1        0.0239
     36 H           0.4926   -2.4509   -0.8211 H       1  UNL1        0.1490
     37 H           1.3158   -1.6105   -3.4937 H       1  UNL1        0.0499
     38 H           3.3859   -1.3169   -2.1443 H       1  UNL1        0.0296
     39 H           3.2613   -3.0081   -1.6016 H       1  UNL1        0.0296
     40 H           3.6134   -2.0379   -4.4756 H       1  UNL1        0.0444
     41 H           4.8222   -2.8953   -3.4851 H       1  UNL1        0.0444
     42 H           6.0195   -5.1309   -2.1985 H       1  UNL1        0.0637
     43 H           6.2131   -6.3398   -0.0621 H       1  UNL1        0.0624
     44 H           2.8129   -8.7003   -1.0897 H       1  UNL1        0.0624
     45 H           2.6170   -7.4887   -3.2244 H       1  UNL1        0.0637
     46 H           1.4266   -3.5443   -5.1292 H       1  UNL1        0.0444
     47 H           1.4661   -5.2070   -4.4883 H       1  UNL1        0.0444
     48 H           1.2808   -4.3723   -2.1936 H       1  UNL1        0.0296
     49 H          -0.0364   -3.6742   -3.1672 H       1  UNL1        0.0296
@<TRIPOS>BOND
     1     1     2    1
     2     1    27    1
     3     1    28    1
     4     1    29    1
     5     2     3    1
     6     2     4    1
     7     2     5    1
     8     3    30    1
     9     3    31    1
    10     3    32    1
    11     4    33    1
    12     4    34    1
    13     4    35    1
    14     5     6    2
    15     5     7   am
    16     7     8    1
    17     7    36    1
    18     8    26    1
    19     8     9    1
    20     8    37    1
    21     9    10    1
    22     9    38    1
    23     9    39    1
    24    10    11    1
    25    10    40    1
    26    10    41    1
    27    12    11    1
    28    11    25    1
    29    12    13    2
    30    12    14    2
    31    12    15    1
    32    15    24   ar
    33    15    16   ar
    34    16    17   ar
    35    16    42    1
    36    17    18   ar
    37    17    43    1
    38    18    19    1
    39    18    23   ar
    40    19    20    1
    41    19    21    1
    42    19    22    1
    43    23    24   ar
    44    23    44    1
    45    24    45    1
    46    25    26    1
    47    25    46    1
    48    25    47    1
    49    26    48    1
    50    26    49    1
