@<TRIPOS>MOLECULE
ZINC000016575272
 52 53 0 0 0
SMALL
GASTEIGER

@<TRIPOS>ATOM
      1 C          -0.0187    1.5258    0.0104 C.3     1  UNL1       -0.0612
      2 C           0.0021   -0.0041    0.0020 C.3     1  UNL1       -0.0311
      3 C           0.7421   -0.5109    1.2415 C.3     1  UNL1       -0.0612
      4 C          -1.4333   -0.5336    0.0129 C.3     1  UNL1        0.0140
      5 N          -2.1054   -0.1483   -1.2305 N.am    1  UNL1       -0.3140
      6 C          -3.3867   -0.5081   -1.4434 C.2     1  UNL1        0.2288
      7 O          -3.9833   -1.1509   -0.6057 O.2     1  UNL1       -0.2743
      8 C          -4.0781   -0.1117   -2.7225 C.3     1  UNL1        0.0968
      9 N          -5.4525   -0.6188   -2.7121 N.3     1  UNL1       -0.1675
     10 C          -6.5138    0.1550   -2.0634 C.3     1  UNL1        0.0250
     11 C          -7.0603    1.1938   -3.0449 C.3     1  UNL1       -0.0132
     12 C          -8.1521    1.9898   -2.3776 C.ar    1  UNL1       -0.0461
     13 C          -9.4641    1.5610   -2.4518 C.ar    1  UNL1       -0.0585
     14 C         -10.4656    2.2912   -1.8397 C.ar    1  UNL1       -0.0615
     15 C         -10.1551    3.4500   -1.1530 C.ar    1  UNL1       -0.0617
     16 C          -8.8429    3.8784   -1.0780 C.ar    1  UNL1       -0.0615
     17 C          -7.8409    3.1459   -1.6865 C.ar    1  UNL1       -0.0585
     18 S          -5.8063   -2.0668   -3.4336 S.O2    1  UNL1        0.0613
     19 O          -7.1488   -1.9706   -3.8892 O.2     1  UNL1       -0.1528
     20 O          -4.7138   -2.3650   -4.2919 O.2     1  UNL1       -0.1528
     21 C          -5.7963   -3.2952   -2.1704 C.ar    1  UNL1        0.1055
     22 C          -4.6248   -3.9619   -1.8639 C.ar    1  UNL1       -0.0353
     23 C          -4.6169   -4.9256   -0.8729 C.ar    1  UNL1       -0.0599
     24 C          -5.7805   -5.2223   -0.1881 C.ar    1  UNL1       -0.0616
     25 C          -6.9518   -4.5549   -0.4939 C.ar    1  UNL1       -0.0599
     26 C          -6.9587   -3.5882   -1.4820 C.ar    1  UNL1       -0.0353
     27 H           1.0039    1.9031    0.0027 H       1  UNL1        0.0233
     28 H          -0.5459    1.8868   -0.8726 H       1  UNL1        0.0233
     29 H          -0.5289    1.8773    0.9072 H       1  UNL1        0.0233
     30 H           0.5123   -0.3556   -0.8948 H       1  UNL1        0.0311
     31 H           0.2319   -0.1594    2.1383 H       1  UNL1        0.0233
     32 H           0.7568   -1.6008    1.2356 H       1  UNL1        0.0233
     33 H           1.7647   -0.1336    1.2338 H       1  UNL1        0.0233
     34 H          -1.4190   -1.6203    0.0965 H       1  UNL1        0.0464
     35 H          -1.9701   -0.1109    0.8621 H       1  UNL1        0.0464
     36 H          -1.6283    0.3658   -1.9006 H       1  UNL1        0.1487
     37 H          -4.0923    0.9749   -2.8061 H       1  UNL1        0.0539
     38 H          -3.5412   -0.5345   -3.5717 H       1  UNL1        0.0539
     39 H          -7.3177   -0.5151   -1.7587 H       1  UNL1        0.0447
     40 H          -6.1104    0.6609   -1.1862 H       1  UNL1        0.0447
     41 H          -6.2564    1.8639   -3.3496 H       1  UNL1        0.0326
     42 H          -7.4637    0.6879   -3.9220 H       1  UNL1        0.0326
     43 H          -9.7068    0.6556   -2.9883 H       1  UNL1        0.0620
     44 H         -11.4908    1.9565   -1.8983 H       1  UNL1        0.0618
     45 H         -10.9376    4.0209   -0.6754 H       1  UNL1        0.0618
     46 H          -8.6003    4.7840   -0.5418 H       1  UNL1        0.0618
     47 H          -6.8157    3.4806   -1.6279 H       1  UNL1        0.0620
     48 H          -3.7157   -3.7301   -2.3990 H       1  UNL1        0.0637
     49 H          -3.7018   -5.4470   -0.6340 H       1  UNL1        0.0618
     50 H          -5.7745   -5.9757    0.5857 H       1  UNL1        0.0618
     51 H          -7.8609   -4.7869    0.0409 H       1  UNL1        0.0618
     52 H          -7.8738   -3.0667   -1.7209 H       1  UNL1        0.0637
@<TRIPOS>BOND
     1     1     2    1
     2     1    27    1
     3     1    28    1
     4     1    29    1
     5     2     3    1
     6     2     4    1
     7     2    30    1
     8     3    31    1
     9     3    32    1
    10     3    33    1
    11     4     5    1
    12     4    34    1
    13     4    35    1
    14     5     6   am
    15     5    36    1
    16     6     7    2
    17     6     8    1
    18     8     9    1
    19     8    37    1
    20     8    38    1
    21     9    10    1
    22    18     9    1
    23    10    11    1
    24    10    39    1
    25    10    40    1
    26    11    12    1
    27    11    41    1
    28    11    42    1
    29    12    17   ar
    30    12    13   ar
    31    13    14   ar
    32    13    43    1
    33    14    15   ar
    34    14    44    1
    35    15    16   ar
    36    15    45    1
    37    16    17   ar
    38    16    46    1
    39    17    47    1
    40    18    19    2
    41    18    20    2
    42    18    21    1
    43    21    26   ar
    44    21    22   ar
    45    22    23   ar
    46    22    48    1
    47    23    24   ar
    48    23    49    1
    49    24    25   ar
    50    24    50    1
    51    25    26   ar
    52    25    51    1
    53    26    52    1
