@<TRIPOS>MOLECULE
ZINC000009058058
 45 47 0 0 0
SMALL
GASTEIGER

@<TRIPOS>ATOM
      1 O           0.0021   -0.0041    0.0020 O.2     1  UNL1       -0.1528
      2 S          -0.0172    1.4168    0.0098 S.O2    1  UNL1        0.0609
      3 O           1.1617    2.2101    0.0028 O.2     1  UNL1       -0.1528
      4 C          -0.9567    1.9094   -1.3970 C.ar    1  UNL1        0.1055
      5 C          -1.8848    1.0442   -1.9458 C.ar    1  UNL1       -0.0348
      6 C          -2.6219    1.4307   -3.0496 C.ar    1  UNL1       -0.0483
      7 C          -2.4313    2.6825   -3.6042 C.ar    1  UNL1        0.0549
      8 C          -3.2345    3.1036   -4.8078 C.3     1  UNL1        0.4174
      9 F          -4.4138    3.7273   -4.3864 F       1  UNL1       -0.1659
     10 F          -2.4843    3.9973   -5.5796 F       1  UNL1       -0.1659
     11 F          -3.5510    1.9771   -5.5746 F       1  UNL1       -0.1659
     12 C          -1.5042    3.5481   -3.0546 C.ar    1  UNL1       -0.0483
     13 C          -0.7699    3.1631   -1.9485 C.ar    1  UNL1       -0.0348
     14 N          -0.8748    1.8654    1.3536 N.3     1  UNL1       -0.1740
     15 C          -0.6796    3.1911    1.9573 C.3     1  UNL1        0.0349
     16 C          -2.0388    3.8966    2.0404 C.3     1  UNL1        0.0350
     17 N          -3.0091    2.9765    2.6503 N.3     1  UNL1       -0.1740
     18 S          -3.8674    3.4255    3.9934 S.O2    1  UNL1        0.0637
     19 O          -4.2585    2.2224    4.6404 O.2     1  UNL1       -0.1528
     20 O          -3.1076    4.4411    4.6341 O.2     1  UNL1       -0.1528
     21 C          -5.3506    4.1933    3.4318 C.ar    1  UNL1        0.1405
     22 C          -6.5745    3.6101    3.6985 C.ar    1  UNL1       -0.0325
     23 C          -7.7386    4.2123    3.2579 C.ar    1  UNL1       -0.0597
     24 C          -7.6794    5.3980    2.5500 C.ar    1  UNL1       -0.0589
     25 C          -6.4562    5.9830    2.2817 C.ar    1  UNL1       -0.0245
     26 C          -5.2905    5.3844    2.7280 C.ar    1  UNL1        0.1496
     27 F          -4.0943    5.9553    2.4663 F       1  UNL1       -0.2034
     28 C          -3.2042    1.6508    2.0465 C.3     1  UNL1        0.0350
     29 C          -1.8490    0.9474    1.9601 C.3     1  UNL1        0.0349
     30 H          -2.0336    0.0662   -1.5125 H       1  UNL1        0.0637
     31 H          -3.3464    0.7545   -3.4788 H       1  UNL1        0.0624
     32 H          -1.3556    4.5263   -3.4877 H       1  UNL1        0.0624
     33 H          -0.0456    3.8394   -1.5191 H       1  UNL1        0.0637
     34 H          -0.2636    3.0794    2.9586 H       1  UNL1        0.0457
     35 H           0.0000    3.7780    1.3395 H       1  UNL1        0.0457
     36 H          -1.9489    4.7928    2.6543 H       1  UNL1        0.0457
     37 H          -2.3719    4.1682    1.0387 H       1  UNL1        0.0457
     38 H          -6.6219    2.6833    4.2509 H       1  UNL1        0.0638
     39 H          -8.6948    3.7557    3.4668 H       1  UNL1        0.0618
     40 H          -8.5893    5.8673    2.2061 H       1  UNL1        0.0618
     41 H          -6.4102    6.9091    1.7279 H       1  UNL1        0.0647
     42 H          -3.8838    1.0639    2.6644 H       1  UNL1        0.0457
     43 H          -3.6202    1.7625    1.0453 H       1  UNL1        0.0457
     44 H          -1.9405    0.0514    1.3461 H       1  UNL1        0.0457
     45 H          -1.5136    0.6754    2.9609 H       1  UNL1        0.0457
@<TRIPOS>BOND
     1     1     2    2
     2     2     3    2
     3     2     4    1
     4     2    14    1
     5     4    13   ar
     6     4     5   ar
     7     5     6   ar
     8     5    30    1
     9     6     7   ar
    10     6    31    1
    11     7     8    1
    12     7    12   ar
    13     8     9    1
    14     8    10    1
    15     8    11    1
    16    12    13   ar
    17    12    32    1
    18    13    33    1
    19    14    29    1
    20    14    15    1
    21    15    16    1
    22    15    34    1
    23    15    35    1
    24    16    17    1
    25    16    36    1
    26    16    37    1
    27    18    17    1
    28    17    28    1
    29    18    19    2
    30    18    20    2
    31    18    21    1
    32    21    26   ar
    33    21    22   ar
    34    22    23   ar
    35    22    38    1
    36    23    24   ar
    37    23    39    1
    38    24    25   ar
    39    24    40    1
    40    25    26   ar
    41    25    41    1
    42    26    27    1
    43    28    29    1
    44    28    42    1
    45    28    43    1
    46    29    44    1
    47    29    45    1
