@<TRIPOS>MOLECULE
ZINC000408619625
 53 55 0 0 0
SMALL
GASTEIGER

@<TRIPOS>ATOM
      1 C          -0.0228    1.5524    0.0238 C.3     1  UNL1       -0.0507
      2 C           0.0066    0.0227    0.0212 C.3     1  UNL1        0.0177
      3 N           0.6991   -0.4504   -1.1800 N.3     1  UNL1       -0.1771
      4 C           2.1598   -0.5623   -1.1873 C.3     1  UNL1        0.0177
      5 C           2.5708   -1.9126   -0.5968 C.3     1  UNL1       -0.0507
      6 S          -0.1693   -0.8587   -2.5297 S.O2    1  UNL1        0.0608
      7 O           0.6424   -1.7582   -3.2722 O.2     1  UNL1       -0.1528
      8 O          -1.4786   -1.1820   -2.0818 O.2     1  UNL1       -0.1528
      9 C          -0.3242    0.5970   -3.5103 C.ar    1  UNL1        0.1057
     10 C          -1.3985    1.4464   -3.3199 C.ar    1  UNL1       -0.0319
     11 C          -1.5223    2.5883   -4.0874 C.ar    1  UNL1       -0.0181
     12 C          -0.5672    2.8828   -5.0496 C.ar    1  UNL1        0.1213
     13 O          -0.6865    4.0057   -5.8056 O.3     1  UNL1       -0.4828
     14 C           0.3339    4.2453   -6.7769 C.3     1  UNL1        0.1655
     15 C           0.0358    5.5258   -7.5134 C.2     1  UNL1        0.2548
     16 O          -0.9533    6.1699   -7.2340 O.2     1  UNL1       -0.2717
     17 N           0.8681    5.9553   -8.4825 N.am    1  UNL1       -0.2826
     18 C           0.5418    7.0925   -9.2330 C.ar    1  UNL1        0.0372
     19 C           0.8791    7.1573  -10.5778 C.ar    1  UNL1       -0.0368
     20 C           0.5594    8.2795  -11.3178 C.ar    1  UNL1       -0.0145
     21 C          -0.0988    9.3438  -10.7204 C.ar    1  UNL1        0.1622
     22 O          -0.3980   10.4452  -11.4636 O.3     1  UNL1       -0.4849
     23 C          -1.3837   11.3349  -10.9281 C.3     1  UNL1        0.1237
     24 C          -1.0608   11.5748   -9.4471 C.3     1  UNL1        0.1237
     25 O          -1.0917   10.3129   -8.7716 O.3     1  UNL1       -0.4849
     26 C          -0.4412    9.2803   -9.3743 C.ar    1  UNL1        0.1638
     27 C          -0.1239    8.1527   -8.6334 C.ar    1  UNL1        0.0049
     28 C           0.5100    2.0292   -5.2384 C.ar    1  UNL1       -0.0181
     29 C           0.6317    0.8910   -4.4650 C.ar    1  UNL1       -0.0319
     30 H           0.9977    1.9354    0.0182 H       1  UNL1        0.0243
     31 H          -0.5490    1.9072   -0.8624 H       1  UNL1        0.0243
     32 H          -0.5380    1.9043    0.9176 H       1  UNL1        0.0243
     33 H           0.5328   -0.3322    0.9074 H       1  UNL1        0.0441
     34 H          -1.0139   -0.3603    0.0269 H       1  UNL1        0.0441
     35 H           2.5248   -0.4874   -2.2116 H       1  UNL1        0.0441
     36 H           2.5887    0.2416   -0.5890 H       1  UNL1        0.0441
     37 H           2.1418   -2.7164   -1.1950 H       1  UNL1        0.0243
     38 H           3.6576   -1.9958   -0.6022 H       1  UNL1        0.0243
     39 H           2.2057   -1.9874    0.4275 H       1  UNL1        0.0243
     40 H          -2.1418    1.2167   -2.5707 H       1  UNL1        0.0638
     41 H          -2.3620    3.2510   -3.9388 H       1  UNL1        0.0655
     42 H           1.2988    4.3299   -6.2770 H       1  UNL1        0.0795
     43 H           0.3631    3.4172   -7.4851 H       1  UNL1        0.0795
     44 H           1.6930    5.4771   -8.6605 H       1  UNL1        0.1549
     45 H           1.3920    6.3302  -11.0460 H       1  UNL1        0.0637
     46 H           0.8232    8.3281  -12.3640 H       1  UNL1        0.0656
     47 H          -1.3567   12.2813  -11.4681 H       1  UNL1        0.0731
     48 H          -2.3727   10.8863  -11.0206 H       1  UNL1        0.0731
     49 H          -0.0690   12.0173   -9.3541 H       1  UNL1        0.0731
     50 H          -1.8043   12.2429   -9.0123 H       1  UNL1        0.0731
     51 H          -0.3911    8.1007   -7.5882 H       1  UNL1        0.0674
     52 H           1.2546    2.2561   -5.9870 H       1  UNL1        0.0655
     53 H           1.4703    0.2264   -4.6113 H       1  UNL1        0.0638
@<TRIPOS>BOND
     1     1     2    1
     2     1    30    1
     3     1    31    1
     4     1    32    1
     5     2     3    1
     6     2    33    1
     7     2    34    1
     8     3     4    1
     9     6     3    1
    10     4     5    1
    11     4    35    1
    12     4    36    1
    13     5    37    1
    14     5    38    1
    15     5    39    1
    16     6     7    2
    17     6     8    2
    18     6     9    1
    19     9    29   ar
    20     9    10   ar
    21    10    11   ar
    22    10    40    1
    23    11    12   ar
    24    11    41    1
    25    12    13    1
    26    12    28   ar
    27    13    14    1
    28    14    15    1
    29    14    42    1
    30    14    43    1
    31    15    16    2
    32    15    17   am
    33    17    18    1
    34    17    44    1
    35    18    27   ar
    36    18    19   ar
    37    19    20   ar
    38    19    45    1
    39    20    21   ar
    40    20    46    1
    41    21    26   ar
    42    21    22    1
    43    22    23    1
    44    23    24    1
    45    23    47    1
    46    23    48    1
    47    24    25    1
    48    24    49    1
    49    24    50    1
    50    25    26    1
    51    26    27   ar
    52    27    51    1
    53    28    29   ar
    54    28    52    1
    55    29    53    1
