@<TRIPOS>MOLECULE
ZINC000071924172
 43 45 0 0 0
SMALL
GASTEIGER

@<TRIPOS>ATOM
      1 C          -0.0184    1.5028    0.0103 C.3     1  UNL1       -0.0397
      2 C           0.0021   -0.0041    0.0020 C.ar    1  UNL1       -0.0503
      3 C           0.0057   -0.6887   -1.1989 C.ar    1  UNL1       -0.0570
      4 C           0.0245   -2.0709   -1.2065 C.ar    1  UNL1       -0.0351
      5 C           0.0400   -2.7685   -0.0132 C.ar    1  UNL1        0.1055
      6 S           0.0633   -4.5303   -0.0229 S.O2    1  UNL1        0.0609
      7 O          -0.4690   -4.9455    1.2275 O.2     1  UNL1       -0.1528
      8 O          -0.4824   -4.9319   -1.2719 O.2     1  UNL1       -0.1528
      9 N           1.6514   -4.9995   -0.0340 N.3     1  UNL1       -0.1760
     10 C           2.6634   -5.2876   -1.0615 C.3     1  UNL1        0.0249
     11 C           3.3407   -6.2268   -0.0539 C.3     1  UNL1       -0.0082
     12 C           4.8690   -6.1550   -0.0587 C.3     1  UNL1       -0.0224
     13 C           5.4239   -7.2000    0.8747 C.ar    1  UNL1       -0.0470
     14 C           5.6389   -6.8940    2.2055 C.ar    1  UNL1       -0.0580
     15 C           6.1479   -7.8525    3.0616 C.ar    1  UNL1       -0.0499
     16 C           6.4414   -9.1173    2.5870 C.ar    1  UNL1        0.0548
     17 C           6.9968  -10.1621    3.5203 C.3     1  UNL1        0.4174
     18 F           5.9432  -10.8784    4.0984 F       1  UNL1       -0.1659
     19 F           7.8184  -11.0385    2.8032 F       1  UNL1       -0.1659
     20 F           7.7443   -9.5395    4.5256 F       1  UNL1       -0.1659
     21 C           6.2251   -9.4237    1.2566 C.ar    1  UNL1       -0.0499
     22 C           5.7125   -8.4663    0.4013 C.ar    1  UNL1       -0.0580
     23 C           2.6724   -5.3050    0.9795 C.3     1  UNL1        0.0249
     24 C           0.0378   -2.0839    1.1877 C.ar    1  UNL1       -0.0351
     25 C           0.0229   -0.7016    1.1953 C.ar    1  UNL1       -0.0570
     26 H           1.0042    1.8801    0.0026 H       1  UNL1        0.0278
     27 H          -0.5455    1.8639   -0.8728 H       1  UNL1        0.0278
     28 H          -0.5286    1.8543    0.9071 H       1  UNL1        0.0278
     29 H          -0.0064   -0.1436   -2.1312 H       1  UNL1        0.0621
     30 H           0.0266   -2.6057   -2.1448 H       1  UNL1        0.0637
     31 H           2.2617   -5.8035   -1.9336 H       1  UNL1        0.0447
     32 H           3.2720   -4.4228   -1.3259 H       1  UNL1        0.0447
     33 H           2.9573   -7.2470   -0.0663 H       1  UNL1        0.0330
     34 H           5.2381   -6.3366   -1.0681 H       1  UNL1        0.0317
     35 H           5.1874   -5.1664    0.2723 H       1  UNL1        0.0317
     36 H           5.4096   -5.9059    2.5762 H       1  UNL1        0.0620
     37 H           6.3166   -7.6132    4.1011 H       1  UNL1        0.0623
     38 H           6.4541  -10.4119    0.8859 H       1  UNL1        0.0623
     39 H           5.5435   -8.7057   -0.6382 H       1  UNL1        0.0620
     40 H           3.2850   -4.4468    1.2560 H       1  UNL1        0.0447
     41 H           2.2769   -5.8374    1.8445 H       1  UNL1        0.0447
     42 H           0.0503   -2.6289    2.1200 H       1  UNL1        0.0637
     43 H           0.0211   -0.1667    2.1335 H       1  UNL1        0.0621
@<TRIPOS>BOND
     1     1     2    1
     2     1    26    1
     3     1    27    1
     4     1    28    1
     5     2    25   ar
     6     2     3   ar
     7     3     4   ar
     8     3    29    1
     9     4     5   ar
    10     4    30    1
    11     5     6    1
    12     5    24   ar
    13     6     7    2
    14     6     8    2
    15     6     9    1
    16     9    23    1
    17     9    10    1
    18    10    11    1
    19    10    31    1
    20    10    32    1
    21    11    12    1
    22    11    23    1
    23    11    33    1
    24    12    13    1
    25    12    34    1
    26    12    35    1
    27    13    22   ar
    28    13    14   ar
    29    14    15   ar
    30    14    36    1
    31    15    16   ar
    32    15    37    1
    33    16    17    1
    34    16    21   ar
    35    17    18    1
    36    17    19    1
    37    17    20    1
    38    21    22   ar
    39    21    38    1
    40    22    39    1
    41    23    40    1
    42    23    41    1
    43    24    25   ar
    44    24    42    1
    45    25    43    1
