@<TRIPOS>MOLECULE
ZINC000021185450
 55 57 0 0 0
SMALL
GASTEIGER

@<TRIPOS>ATOM
      1 C           3.5765   -0.1356    2.6471 C.3     1  UNL1       -0.0379
      2 C           3.6397   -0.8231    3.9867 C.ar    1  UNL1       -0.0290
      3 C           4.7538   -1.5625    4.3324 C.ar    1  UNL1       -0.0571
      4 C           4.8123   -2.1941    5.5612 C.ar    1  UNL1       -0.0611
      5 C           3.7565   -2.0872    6.4478 C.ar    1  UNL1       -0.0571
      6 C           2.6398   -1.3489    6.1083 C.ar    1  UNL1       -0.0290
      7 C           1.4898   -1.2326    7.0754 C.3     1  UNL1       -0.0379
      8 C           2.5801   -0.7091    4.8772 C.ar    1  UNL1        0.0393
      9 N           1.4504    0.0401    4.5304 N.am    1  UNL1       -0.2840
     10 C           1.5514    1.3736    4.3627 C.2     1  UNL1        0.2313
     11 O           2.6327    1.9157    4.4519 O.2     1  UNL1       -0.2741
     12 C           0.3210    2.1909    4.0645 C.3     1  UNL1        0.0761
     13 N           0.7106    3.5808    3.7919 N.3     1  UNL1       -0.2915
     14 C           1.6206    3.6564    2.6411 C.3     1  UNL1        0.0138
     15 C           1.8584    5.1260    2.2778 C.3     1  UNL1        0.0333
     16 N           2.3171    5.8365    3.4812 N.3     1  UNL1       -0.1741
     17 S           3.6847    6.7697    3.4478 S.O2    1  UNL1        0.0609
     18 O           4.1516    6.8454    4.7877 O.2     1  UNL1       -0.1528
     19 O           4.4778    6.2810    2.3748 O.2     1  UNL1       -0.1528
     20 C           3.1921    8.4010    2.9996 C.ar    1  UNL1        0.1055
     21 C           3.1496    8.7689    1.6678 C.ar    1  UNL1       -0.0348
     22 C           2.7632   10.0487    1.3162 C.ar    1  UNL1       -0.0483
     23 C           2.4187   10.9605    2.2964 C.ar    1  UNL1        0.0549
     24 C           1.9979   12.3559    1.9132 C.3     1  UNL1        0.4174
     25 F           0.6122   12.3896    1.7237 F       1  UNL1       -0.1659
     26 F           2.3509   13.2461    2.9330 F       1  UNL1       -0.1659
     27 F           2.6399   12.7273    0.7270 F       1  UNL1       -0.1659
     28 C           2.4598   10.5922    3.6282 C.ar    1  UNL1       -0.0483
     29 C           2.8426    9.3112    3.9796 C.ar    1  UNL1       -0.0348
     30 C           1.5287    5.6965    4.7149 C.3     1  UNL1        0.0333
     31 C           1.3039    4.2044    4.9823 C.3     1  UNL1        0.0138
     32 H           4.0928    0.8226    2.7058 H       1  UNL1        0.0278
     33 H           4.0563   -0.7614    1.8946 H       1  UNL1        0.0278
     34 H           2.5347    0.0292    2.3721 H       1  UNL1        0.0278
     35 H           5.5800   -1.6479    3.6421 H       1  UNL1        0.0621
     36 H           5.6843   -2.7723    5.8288 H       1  UNL1        0.0618
     37 H           3.8051   -2.5819    7.4066 H       1  UNL1        0.0621
     38 H           1.6423   -0.3659    7.7187 H       1  UNL1        0.0278
     39 H           0.5591   -1.1139    6.5206 H       1  UNL1        0.0278
     40 H           1.4363   -2.1337    7.6863 H       1  UNL1        0.0278
     41 H           0.5944   -0.4003    4.4107 H       1  UNL1        0.1549
     42 H          -0.1868    1.7783    3.1927 H       1  UNL1        0.0522
     43 H          -0.3503    2.1634    4.9228 H       1  UNL1        0.0522
     44 H           2.5704    3.1868    2.8971 H       1  UNL1        0.0440
     45 H           1.1759    3.1390    1.7911 H       1  UNL1        0.0440
     46 H           2.6198    5.1925    1.5008 H       1  UNL1        0.0456
     47 H           0.9287    5.5703    1.9224 H       1  UNL1        0.0456
     48 H           3.4187    8.0565    0.9020 H       1  UNL1        0.0637
     49 H           2.7307   10.3363    0.2757 H       1  UNL1        0.0624
     50 H           2.1904   11.3045    4.3940 H       1  UNL1        0.0624
     51 H           2.8747    9.0235    5.0200 H       1  UNL1        0.0637
     52 H           2.0722    6.1401    5.5491 H       1  UNL1        0.0456
     53 H           0.5673    6.1956    4.5937 H       1  UNL1        0.0456
     54 H           0.6295    4.0844    5.8301 H       1  UNL1        0.0440
     55 H           2.2581    3.7271    5.2056 H       1  UNL1        0.0440
@<TRIPOS>BOND
     1     1     2    1
     2     1    32    1
     3     1    33    1
     4     1    34    1
     5     2     8   ar
     6     2     3   ar
     7     3     4   ar
     8     3    35    1
     9     4     5   ar
    10     4    36    1
    11     5     6   ar
    12     5    37    1
    13     6     7    1
    14     6     8   ar
    15     7    38    1
    16     7    39    1
    17     7    40    1
    18     8     9    1
    19     9    10   am
    20     9    41    1
    21    10    11    2
    22    10    12    1
    23    12    13    1
    24    12    42    1
    25    12    43    1
    26    13    31    1
    27    13    14    1
    28    14    15    1
    29    14    44    1
    30    14    45    1
    31    15    16    1
    32    15    46    1
    33    15    47    1
    34    17    16    1
    35    16    30    1
    36    17    18    2
    37    17    19    2
    38    17    20    1
    39    20    29   ar
    40    20    21   ar
    41    21    22   ar
    42    21    48    1
    43    22    23   ar
    44    22    49    1
    45    23    24    1
    46    23    28   ar
    47    24    25    1
    48    24    26    1
    49    24    27    1
    50    28    29   ar
    51    28    50    1
    52    29    51    1
    53    30    31    1
    54    30    52    1
    55    30    53    1
    56    31    54    1
    57    31    55    1
