@<TRIPOS>MOLECULE
ZINC000408606255
 47 48 0 0 0
SMALL
GASTEIGER

@<TRIPOS>ATOM
      1 C           0.0087    1.5788    0.0407 C.3     1  UNL1       -0.0507
      2 C           0.0350    0.0490    0.0424 C.3     1  UNL1        0.0177
      3 N           0.7208   -0.4289   -1.1607 N.3     1  UNL1       -0.1771
      4 C           2.1812   -0.5437   -1.1745 C.3     1  UNL1        0.0177
      5 C           2.5923   -1.8931   -0.5821 C.3     1  UNL1       -0.0507
      6 S          -0.1548   -0.8393   -2.5051 S.O2    1  UNL1        0.0608
      7 O           0.6516   -1.7426   -3.2488 O.2     1  UNL1       -0.1528
      8 O          -1.4625   -1.1587   -2.0501 O.2     1  UNL1       -0.1528
      9 C          -0.3114    0.6139   -3.4892 C.ar    1  UNL1        0.1057
     10 C          -1.3831    1.4659   -3.2962 C.ar    1  UNL1       -0.0319
     11 C          -1.5082    2.6058   -4.0664 C.ar    1  UNL1       -0.0181
     12 C          -0.5571    2.8956   -5.0340 C.ar    1  UNL1        0.1213
     13 O          -0.6777    4.0166   -5.7927 O.3     1  UNL1       -0.4828
     14 C           0.3386    4.2513   -6.7695 C.3     1  UNL1        0.1655
     15 C           0.0395    5.5303   -7.5082 C.2     1  UNL1        0.2549
     16 O          -0.9469    6.1772   -7.2261 O.2     1  UNL1       -0.2717
     17 N           0.8681    5.9553   -8.4825 N.am    1  UNL1       -0.2817
     18 C           0.5422    7.0914   -9.2322 C.ar    1  UNL1        0.0475
     19 C          -0.1236    8.1523   -8.6337 C.ar    1  UNL1       -0.0394
     20 C          -0.4436    9.2726   -9.3762 C.ar    1  UNL1       -0.0599
     21 C          -0.1020    9.3380  -10.7143 C.ar    1  UNL1       -0.0606
     22 C           0.5610    8.2830  -11.3143 C.ar    1  UNL1       -0.0460
     23 C           0.8894    7.1622  -10.5760 C.ar    1  UNL1        0.0390
     24 BR          1.7958    5.7198  -11.3969 Br      1  UNL1       -0.0484
     25 C           0.5175    2.0393   -5.2254 C.ar    1  UNL1       -0.0181
     26 C           0.6406    0.9032   -4.4492 C.ar    1  UNL1       -0.0319
     27 H           1.0299    1.9598    0.0291 H       1  UNL1        0.0243
     28 H          -0.5210    1.9321   -0.8440 H       1  UNL1        0.0243
     29 H          -0.5016    1.9344    0.9358 H       1  UNL1        0.0243
     30 H           0.5646   -0.3043    0.9271 H       1  UNL1        0.0441
     31 H          -0.9862   -0.3319    0.0540 H       1  UNL1        0.0441
     32 H           2.5416   -0.4725   -2.2008 H       1  UNL1        0.0441
     33 H           2.6146    0.2610   -0.5807 H       1  UNL1        0.0441
     34 H           3.6789   -1.9786   -0.5924 H       1  UNL1        0.0243
     35 H           2.2320   -1.9643    0.4442 H       1  UNL1        0.0243
     36 H           2.1590   -2.6978   -1.1760 H       1  UNL1        0.0243
     37 H          -2.1232    1.2398   -2.5428 H       1  UNL1        0.0638
     38 H          -2.3459    3.2707   -3.9158 H       1  UNL1        0.0655
     39 H           1.3060    4.3355   -6.2743 H       1  UNL1        0.0795
     40 H           0.3627    3.4211   -7.4754 H       1  UNL1        0.0795
     41 H           1.6904    5.4738   -8.6642 H       1  UNL1        0.1549
     42 H          -0.3916    8.1019   -7.5887 H       1  UNL1        0.0636
     43 H          -0.9616   10.0981   -8.9109 H       1  UNL1        0.0618
     44 H          -0.3537   10.2149  -11.2924 H       1  UNL1        0.0618
     45 H           0.8261    8.3370  -12.3599 H       1  UNL1        0.0629
     46 H           1.2590    2.2626   -5.9782 H       1  UNL1        0.0655
     47 H           1.4772    0.2364   -4.5976 H       1  UNL1        0.0638
@<TRIPOS>BOND
     1     1     2    1
     2     1    27    1
     3     1    28    1
     4     1    29    1
     5     2     3    1
     6     2    30    1
     7     2    31    1
     8     3     4    1
     9     6     3    1
    10     4     5    1
    11     4    32    1
    12     4    33    1
    13     5    34    1
    14     5    35    1
    15     5    36    1
    16     6     7    2
    17     6     8    2
    18     6     9    1
    19     9    26   ar
    20     9    10   ar
    21    10    11   ar
    22    10    37    1
    23    11    12   ar
    24    11    38    1
    25    12    13    1
    26    12    25   ar
    27    13    14    1
    28    14    15    1
    29    14    39    1
    30    14    40    1
    31    15    16    2
    32    15    17   am
    33    17    18    1
    34    17    41    1
    35    18    23   ar
    36    18    19   ar
    37    19    20   ar
    38    19    42    1
    39    20    21   ar
    40    20    43    1
    41    21    22   ar
    42    21    44    1
    43    22    23   ar
    44    22    45    1
    45    23    24    1
    46    25    26   ar
    47    25    46    1
    48    26    47    1
