@<TRIPOS>MOLECULE
ZINC000408561897
 56 58 0 0 0
SMALL
GASTEIGER

@<TRIPOS>ATOM
      1 C           1.6176    0.9988   -1.8852 C.3     1  UNL1       -0.0397
      2 C           0.9994   -0.3400   -1.5745 C.ar    1  UNL1       -0.0498
      3 C           0.8145   -0.7278   -0.2606 C.ar    1  UNL1       -0.0540
      4 C           0.2474   -1.9558    0.0243 C.ar    1  UNL1       -0.0236
      5 C           0.0462   -2.3788    1.4567 C.3     1  UNL1       -0.0378
      6 C          -0.1356   -2.7958   -1.0046 C.ar    1  UNL1        0.1113
      7 S          -0.8590   -4.3608   -0.6414 S.O2    1  UNL1        0.0614
      8 O          -1.4071   -4.2560    0.6654 O.2     1  UNL1       -0.1528
      9 O          -1.6285   -4.7212   -1.7804 O.2     1  UNL1       -0.1528
     10 N           0.3753   -5.4606   -0.5440 N.3     1  UNL1       -0.1758
     11 C           0.8254   -6.1885   -1.7382 C.3     1  UNL1        0.0205
     12 C           0.7943   -7.6910   -1.4407 C.3     1  UNL1       -0.0378
     13 C           1.6192   -7.9751   -0.1834 C.3     1  UNL1       -0.0395
     14 C           1.0080   -7.2341    1.0080 C.3     1  UNL1        0.0502
     15 H          -0.0241   -7.5561    1.1462 H       1  UNL1        0.0407
     16 C           1.8014   -7.5409    2.2520 C.2     1  UNL1        0.2216
     17 O           2.3389   -6.6431    2.8653 O.2     1  UNL1       -0.2751
     18 N           1.9136   -8.8129    2.6830 N.am    1  UNL1       -0.2852
     19 C           2.5718   -9.0882    3.8867 C.ar    1  UNL1        0.0334
     20 C           3.2999  -10.2622    4.0290 C.ar    1  UNL1       -0.0399
     21 C           3.9484  -10.5311    5.2184 C.ar    1  UNL1       -0.0484
     22 C           3.8730   -9.6329    6.2671 C.ar    1  UNL1        0.0549
     23 C           4.5814   -9.9297    7.5637 C.3     1  UNL1        0.4174
     24 F           5.8784   -9.4075    7.5165 F       1  UNL1       -0.1659
     25 F           3.8807   -9.3429    8.6229 F       1  UNL1       -0.1659
     26 F           4.6428  -11.3141    7.7553 F       1  UNL1       -0.1659
     27 C           3.1492   -8.4628    6.1285 C.ar    1  UNL1       -0.0484
     28 C           2.5032   -8.1854    4.9397 C.ar    1  UNL1       -0.0399
     29 C           1.0452   -5.7223    0.7372 C.3     1  UNL1        0.0316
     30 C           0.0485   -2.4076   -2.3186 C.ar    1  UNL1       -0.0236
     31 C          -0.3695   -3.3230   -3.4403 C.3     1  UNL1       -0.0378
     32 C           0.6120   -1.1779   -2.6035 C.ar    1  UNL1       -0.0540
     33 H           0.8337    1.7524   -1.9597 H       1  UNL1        0.0278
     34 H           2.3103    1.2725   -1.0894 H       1  UNL1        0.0278
     35 H           2.1560    0.9397   -2.8311 H       1  UNL1        0.0278
     36 H           1.1134   -0.0714    0.5433 H       1  UNL1        0.0623
     37 H          -0.9744   -2.1498    1.7633 H       1  UNL1        0.0278
     38 H           0.2208   -3.4509    1.5469 H       1  UNL1        0.0278
     39 H           0.7468   -1.8415    2.0960 H       1  UNL1        0.0278
     40 H           0.1604   -5.9675   -2.5731 H       1  UNL1        0.0444
     41 H           1.8423   -5.8866   -1.9886 H       1  UNL1        0.0444
     42 H          -0.2359   -8.0087   -1.2795 H       1  UNL1        0.0278
     43 H           1.2164   -8.2376   -2.2840 H       1  UNL1        0.0278
     44 H           1.6190   -9.0466    0.0166 H       1  UNL1        0.0273
     45 H           2.6433   -7.6346   -0.3363 H       1  UNL1        0.0273
     46 H           1.5381   -9.5376    2.1588 H       1  UNL1        0.1548
     47 H           3.3586  -10.9645    3.2105 H       1  UNL1        0.0636
     48 H           4.5147  -11.4439    5.3296 H       1  UNL1        0.0624
     49 H           3.0922   -7.7633    6.9494 H       1  UNL1        0.0624
     50 H           1.9381   -7.2713    4.8320 H       1  UNL1        0.0636
     51 H           2.0807   -5.3850    0.6898 H       1  UNL1        0.0451
     52 H           0.5231   -5.1951    1.5356 H       1  UNL1        0.0451
     53 H          -1.4336   -3.1931   -3.6379 H       1  UNL1        0.0278
     54 H           0.1990   -3.0806   -4.3381 H       1  UNL1        0.0278
     55 H          -0.1764   -4.3575   -3.1562 H       1  UNL1        0.0278
     56 H           0.7558   -0.8747   -3.6300 H       1  UNL1        0.0623
@<TRIPOS>BOND
     1     1     2    1
     2     1    33    1
     3     1    34    1
     4     1    35    1
     5     2    32   ar
     6     2     3   ar
     7     3     4   ar
     8     3    36    1
     9     4     5    1
    10     4     6   ar
    11     5    37    1
    12     5    38    1
    13     5    39    1
    14     6     7    1
    15     6    30   ar
    16     7     8    2
    17     7     9    2
    18     7    10    1
    19    10    29    1
    20    10    11    1
    21    11    12    1
    22    11    40    1
    23    11    41    1
    24    12    13    1
    25    12    42    1
    26    12    43    1
    27    13    14    1
    28    13    44    1
    29    13    45    1
    30    14    15    1
    31    14    16    1
    32    14    29    1
    33    16    17    2
    34    16    18   am
    35    18    19    1
    36    18    46    1
    37    19    28   ar
    38    19    20   ar
    39    20    21   ar
    40    20    47    1
    41    21    22   ar
    42    21    48    1
    43    22    23    1
    44    22    27   ar
    45    23    24    1
    46    23    25    1
    47    23    26    1
    48    27    28   ar
    49    27    49    1
    50    28    50    1
    51    29    51    1
    52    29    52    1
    53    30    31    1
    54    30    32   ar
    55    31    53    1
    56    31    54    1
    57    31    55    1
    58    32    56    1
