@<TRIPOS>MOLECULE
ZINC000408612559
 65 67 0 0 0
SMALL
GASTEIGER

@<TRIPOS>ATOM
      1 C          -0.0184    1.5028    0.0103 C.3     1  UNL1       -0.0397
      2 C           0.0021   -0.0041    0.0020 C.ar    1  UNL1       -0.0503
      3 C           0.0057   -0.6887   -1.1989 C.ar    1  UNL1       -0.0570
      4 C           0.0245   -2.0709   -1.2065 C.ar    1  UNL1       -0.0351
      5 C           0.0400   -2.7685   -0.0132 C.ar    1  UNL1        0.1055
      6 S           0.0633   -4.5303   -0.0229 S.O2    1  UNL1        0.0613
      7 O          -0.4690   -4.9455    1.2275 O.2     1  UNL1       -0.1528
      8 O          -0.4824   -4.9319   -1.2719 O.2     1  UNL1       -0.1528
      9 N           1.6514   -4.9995   -0.0340 N.3     1  UNL1       -0.1675
     10 C           2.3607   -5.2139    1.2298 C.3     1  UNL1        0.0250
     11 C           2.3045   -6.6971    1.6009 C.3     1  UNL1       -0.0132
     12 C           3.0341   -6.9177    2.9009 C.ar    1  UNL1       -0.0461
     13 C           4.3868   -7.2026    2.8947 C.ar    1  UNL1       -0.0585
     14 C           5.0560   -7.4049    4.0872 C.ar    1  UNL1       -0.0615
     15 C           4.3727   -7.3219    5.2860 C.ar    1  UNL1       -0.0617
     16 C           3.0203   -7.0361    5.2923 C.ar    1  UNL1       -0.0615
     17 C           2.3519   -6.8295    4.1000 C.ar    1  UNL1       -0.0585
     18 C           2.3471   -5.2001   -1.3075 C.3     1  UNL1        0.0968
     19 C           3.0899   -3.9422   -1.6778 C.2     1  UNL1        0.2290
     20 O           3.0428   -2.9735   -0.9496 O.2     1  UNL1       -0.2743
     21 N           3.8065   -3.8937   -2.8182 N.am    1  UNL1       -0.3116
     22 C           4.5286   -2.6709   -3.1782 C.3     1  UNL1        0.0206
     23 H           3.9557   -1.8020   -2.8544 H       1  UNL1        0.0495
     24 C           5.8958   -2.6651   -2.4915 C.3     1  UNL1       -0.0466
     25 C           4.7196   -2.6193   -4.6953 C.3     1  UNL1       -0.0308
     26 C           3.3553   -2.4994   -5.3774 C.3     1  UNL1       -0.0260
     27 C           3.5435   -2.4486   -6.8717 C.ar    1  UNL1       -0.0473
     28 C           3.7151   -1.2323   -7.5058 C.ar    1  UNL1       -0.0586
     29 C           3.8877   -1.1857   -8.8765 C.ar    1  UNL1       -0.0615
     30 C           3.8893   -2.3554   -9.6131 C.ar    1  UNL1       -0.0617
     31 C           3.7186   -3.5718   -8.9790 C.ar    1  UNL1       -0.0615
     32 C           3.5503   -3.6187   -7.6077 C.ar    1  UNL1       -0.0586
     33 C           0.0378   -2.0839    1.1877 C.ar    1  UNL1       -0.0351
     34 C           0.0229   -0.7016    1.1953 C.ar    1  UNL1       -0.0570
     35 H           1.0042    1.8801    0.0026 H       1  UNL1        0.0278
     36 H          -0.5455    1.8639   -0.8728 H       1  UNL1        0.0278
     37 H          -0.5286    1.8543    0.9071 H       1  UNL1        0.0278
     38 H          -0.0064   -0.1436   -2.1312 H       1  UNL1        0.0621
     39 H           0.0266   -2.6057   -2.1448 H       1  UNL1        0.0637
     40 H           3.4005   -4.9060    1.1197 H       1  UNL1        0.0447
     41 H           1.8886   -4.6246    2.0159 H       1  UNL1        0.0447
     42 H           1.2647   -7.0050    1.7111 H       1  UNL1        0.0326
     43 H           2.7766   -7.2865    0.8148 H       1  UNL1        0.0326
     44 H           4.9206   -7.2675    1.9581 H       1  UNL1        0.0620
     45 H           6.1127   -7.6282    4.0822 H       1  UNL1        0.0618
     46 H           4.8955   -7.4807    6.2176 H       1  UNL1        0.0618
     47 H           2.4863   -6.9716    6.2288 H       1  UNL1        0.0618
     48 H           1.2953   -6.6062    4.1049 H       1  UNL1        0.0620
     49 H           3.0540   -6.0240   -1.2095 H       1  UNL1        0.0539
     50 H           1.6206   -5.4353   -2.0853 H       1  UNL1        0.0539
     51 H           3.8442   -4.6685   -3.4007 H       1  UNL1        0.1490
     52 H           6.4687   -3.5340   -2.8153 H       1  UNL1        0.0247
     53 H           6.4330   -1.7553   -2.7593 H       1  UNL1        0.0247
     54 H           5.7597   -2.7018   -1.4106 H       1  UNL1        0.0247
     55 H           5.3328   -1.7564   -4.9552 H       1  UNL1        0.0286
     56 H           5.2145   -3.5309   -5.0304 H       1  UNL1        0.0286
     57 H           2.7421   -3.3623   -5.1175 H       1  UNL1        0.0314
     58 H           2.8605   -1.5879   -5.0423 H       1  UNL1        0.0314
     59 H           3.7139   -0.3184   -6.9303 H       1  UNL1        0.0620
     60 H           4.0210   -0.2353   -9.3720 H       1  UNL1        0.0618
     61 H           4.0234   -2.3189  -10.6842 H       1  UNL1        0.0618
     62 H           3.7195   -4.4857   -9.5545 H       1  UNL1        0.0618
     63 H           3.4170   -4.5691   -7.1122 H       1  UNL1        0.0620
     64 H           0.0503   -2.6289    2.1200 H       1  UNL1        0.0637
     65 H           0.0211   -0.1667    2.1335 H       1  UNL1        0.0621
@<TRIPOS>BOND
     1     1     2    1
     2     1    35    1
     3     1    36    1
     4     1    37    1
     5     2    34   ar
     6     2     3   ar
     7     3     4   ar
     8     3    38    1
     9     4     5   ar
    10     4    39    1
    11     5     6    1
    12     5    33   ar
    13     6     7    2
    14     6     8    2
    15     6     9    1
    16     9    10    1
    17     9    18    1
    18    10    11    1
    19    10    40    1
    20    10    41    1
    21    11    12    1
    22    11    42    1
    23    11    43    1
    24    12    17   ar
    25    12    13   ar
    26    13    14   ar
    27    13    44    1
    28    14    15   ar
    29    14    45    1
    30    15    16   ar
    31    15    46    1
    32    16    17   ar
    33    16    47    1
    34    17    48    1
    35    18    19    1
    36    18    49    1
    37    18    50    1
    38    19    20    2
    39    19    21   am
    40    21    22    1
    41    21    51    1
    42    22    23    1
    43    22    24    1
    44    22    25    1
    45    24    52    1
    46    24    53    1
    47    24    54    1
    48    25    26    1
    49    25    55    1
    50    25    56    1
    51    26    27    1
    52    26    57    1
    53    26    58    1
    54    27    32   ar
    55    27    28   ar
    56    28    29   ar
    57    28    59    1
    58    29    30   ar
    59    29    60    1
    60    30    31   ar
    61    30    61    1
    62    31    32   ar
    63    31    62    1
    64    32    63    1
    65    33    34   ar
    66    33    64    1
    67    34    65    1
