@<TRIPOS>MOLECULE
ZINC000005851430
 59 60 0 0 0
SMALL
GASTEIGER

@<TRIPOS>ATOM
      1 C           0.0292    1.5413    0.0235 C.3     1  UNL1       -0.0507
      2 C           0.0523    0.0115    0.0193 C.3     1  UNL1        0.0177
      3 N           0.7297   -0.4634   -1.1898 N.3     1  UNL1       -0.1771
      4 C           2.1898   -0.5812   -1.2130 C.3     1  UNL1        0.0177
      5 C           2.6017   -1.9337   -0.6281 C.3     1  UNL1       -0.0507
      6 S          -0.1549   -0.8669   -2.5302 S.O2    1  UNL1        0.0609
      7 O           0.6449   -1.7691   -3.2822 O.2     1  UNL1       -0.1528
      8 O          -1.4605   -1.1853   -2.0684 O.2     1  UNL1       -0.1528
      9 C          -0.3145    0.5902   -3.5079 C.ar    1  UNL1        0.1075
     10 C          -1.3832    1.4432   -3.3047 C.ar    1  UNL1       -0.0318
     11 C          -1.5138    2.5883   -4.0689 C.ar    1  UNL1       -0.0163
     12 C          -0.5725    2.8835   -5.0412 C.ar    1  UNL1        0.1413
     13 O          -0.6993    4.0093   -5.7931 O.3     1  UNL1       -0.4933
     14 C          -1.8286    4.8435   -5.5269 C.3     1  UNL1        0.0789
     15 C           0.5050    2.0242   -5.2465 C.ar    1  UNL1        0.0774
     16 N           1.4606    2.3179   -6.2283 N.am    1  UNL1       -0.2825
     17 C           2.1904    1.3262   -6.7764 C.2     1  UNL1        0.2173
     18 O           1.9520    0.1708   -6.4946 O.2     1  UNL1       -0.2755
     19 C           3.3025    1.6529   -7.7395 C.3     1  UNL1        0.0245
     20 C           3.9661    0.3573   -8.2106 C.3     1  UNL1       -0.0419
     21 C           5.0953    0.6889   -9.1884 C.3     1  UNL1       -0.0406
     22 C           6.1932    1.4630   -8.4560 C.3     1  UNL1       -0.0502
     23 C           7.3223    1.7946   -9.4337 C.3     1  UNL1       -0.0528
     24 C           7.9038    0.4977  -10.0002 C.3     1  UNL1       -0.0530
     25 C           6.8059   -0.2763  -10.7326 C.3     1  UNL1       -0.0528
     26 C           5.6767   -0.6080   -9.7548 C.3     1  UNL1       -0.0502
     27 C           0.6323    0.8806   -4.4724 C.ar    1  UNL1       -0.0105
     28 H           1.0511    1.9201    0.0071 H       1  UNL1        0.0243
     29 H          -0.5051    1.8990   -0.8566 H       1  UNL1        0.0243
     30 H          -0.4748    1.8946    0.9231 H       1  UNL1        0.0243
     31 H           0.5866   -0.3463    0.8994 H       1  UNL1        0.0441
     32 H          -0.9696   -0.3674    0.0358 H       1  UNL1        0.0441
     33 H           2.5440   -0.5069   -2.2411 H       1  UNL1        0.0441
     34 H           2.6285    0.2204   -0.6187 H       1  UNL1        0.0441
     35 H           3.6880   -2.0214   -0.6454 H       1  UNL1        0.0243
     36 H           2.2475   -2.0080    0.4001 H       1  UNL1        0.0243
     37 H           2.1630   -2.7353   -1.2223 H       1  UNL1        0.0243
     38 H          -2.1184    1.2144   -2.5474 H       1  UNL1        0.0638
     39 H          -2.3502    3.2523   -3.9079 H       1  UNL1        0.0655
     40 H          -2.7453    4.2771   -5.6907 H       1  UNL1        0.0660
     41 H          -1.7923    5.1848   -4.4923 H       1  UNL1        0.0660
     42 H          -1.8094    5.7048   -6.1945 H       1  UNL1        0.0660
     43 H           1.5970    3.2350   -6.5134 H       1  UNL1        0.1549
     44 H           2.8945    2.1854   -8.5986 H       1  UNL1        0.0358
     45 H           4.0422    2.2796   -7.2413 H       1  UNL1        0.0358
     46 H           4.3742   -0.1752   -7.3515 H       1  UNL1        0.0272
     47 H           3.2265   -0.2695   -8.7088 H       1  UNL1        0.0272
     48 H           4.7033    1.2977  -10.0031 H       1  UNL1        0.0301
     49 H           5.7789    2.3869   -8.0524 H       1  UNL1        0.0268
     50 H           6.5852    0.8542   -7.6412 H       1  UNL1        0.0268
     51 H           6.9303    2.4034  -10.2485 H       1  UNL1        0.0265
     52 H           8.1045    2.3460   -8.9120 H       1  UNL1        0.0265
     53 H           8.7082    0.7340  -10.6968 H       1  UNL1        0.0265
     54 H           8.2958   -0.1111   -9.1854 H       1  UNL1        0.0265
     55 H           6.4138    0.3324  -11.5473 H       1  UNL1        0.0265
     56 H           7.2201   -1.2002  -11.1361 H       1  UNL1        0.0265
     57 H           6.0687   -1.2167   -8.9401 H       1  UNL1        0.0268
     58 H           4.8946   -1.1594  -10.2766 H       1  UNL1        0.0268
     59 H           1.4665    0.2126   -4.6287 H       1  UNL1        0.0657
@<TRIPOS>BOND
     1     1     2    1
     2     1    28    1
     3     1    29    1
     4     1    30    1
     5     2     3    1
     6     2    31    1
     7     2    32    1
     8     3     4    1
     9     6     3    1
    10     4     5    1
    11     4    33    1
    12     4    34    1
    13     5    35    1
    14     5    36    1
    15     5    37    1
    16     6     7    2
    17     6     8    2
    18     6     9    1
    19     9    27   ar
    20     9    10   ar
    21    10    11   ar
    22    10    38    1
    23    11    12   ar
    24    11    39    1
    25    12    13    1
    26    12    15   ar
    27    13    14    1
    28    14    40    1
    29    14    41    1
    30    14    42    1
    31    15    16    1
    32    15    27   ar
    33    16    17   am
    34    16    43    1
    35    17    18    2
    36    17    19    1
    37    19    20    1
    38    19    44    1
    39    19    45    1
    40    20    21    1
    41    20    46    1
    42    20    47    1
    43    21    26    1
    44    21    22    1
    45    21    48    1
    46    22    23    1
    47    22    49    1
    48    22    50    1
    49    23    24    1
    50    23    51    1
    51    23    52    1
    52    24    25    1
    53    24    53    1
    54    24    54    1
    55    25    26    1
    56    25    55    1
    57    25    56    1
    58    26    57    1
    59    26    58    1
    60    27    59    1
