@<TRIPOS>MOLECULE
ZINC000013117958
 61 63 0 0 0
SMALL
GASTEIGER

@<TRIPOS>ATOM
      1 C          -0.2864    1.3707   -0.6191 C.3     1  UNL1       -0.0409
      2 C          -0.0002    0.0015    0.0008 C.3     1  UNL1        0.0846
      3 H           0.5648    0.1314    0.9238 H       1  UNL1        0.0556
      4 C           0.8023   -0.8300   -0.9665 C.2     1  UNL1        0.2325
      5 O           0.2695   -1.7315   -1.5784 O.2     1  UNL1       -0.2739
      6 N           2.1121   -0.5719   -1.1517 N.am    1  UNL1       -0.2997
      7 C           2.7491    0.5767   -0.4932 C.3     1  UNL1        0.0173
      8 C           3.9761    0.0836    0.2802 C.3     1  UNL1       -0.0278
      9 H           3.6564   -0.5730    1.0894 H       1  UNL1        0.0313
     10 C           4.7287    1.2819    0.8619 C.3     1  UNL1       -0.0610
     11 C           4.8967   -0.6868   -0.6691 C.3     1  UNL1       -0.0450
     12 C           4.1550   -1.9043   -1.2255 C.3     1  UNL1       -0.0278
     13 H           3.8336   -2.5421   -0.4021 H       1  UNL1        0.0313
     14 C           5.0870   -2.6924   -2.1481 C.3     1  UNL1       -0.0610
     15 C           2.9314   -1.4372   -2.0111 C.3     1  UNL1        0.0173
     16 N          -1.2690   -0.6778    0.2949 N.3     1  UNL1       -0.2892
     17 C          -2.1806   -0.6115   -0.8552 C.3     1  UNL1        0.0141
     18 C          -3.4119   -1.4804   -0.5775 C.3     1  UNL1        0.0333
     19 N          -3.9981   -1.0638    0.7054 N.3     1  UNL1       -0.1741
     20 S          -5.6105   -0.7066    0.8271 S.O2    1  UNL1        0.0609
     21 O          -5.7477    0.1515    1.9515 O.2     1  UNL1       -0.1528
     22 O          -6.0424   -0.3510   -0.4792 O.2     1  UNL1       -0.1528
     23 C          -6.4466   -2.2022    1.2377 C.ar    1  UNL1        0.1055
     24 C          -6.9107   -3.0324    0.2346 C.ar    1  UNL1       -0.0348
     25 C          -7.5666   -4.2058    0.5567 C.ar    1  UNL1       -0.0483
     26 C          -7.7580   -4.5493    1.8820 C.ar    1  UNL1        0.0549
     27 C          -8.4735   -5.8282    2.2332 C.3     1  UNL1        0.4174
     28 F          -7.5439   -6.8681    2.3412 F       1  UNL1       -0.1659
     29 F          -9.1399   -5.6699    3.4531 F       1  UNL1       -0.1659
     30 F          -9.4009   -6.1340    1.2314 F       1  UNL1       -0.1659
     31 C          -7.2926   -3.7197    2.8851 C.ar    1  UNL1       -0.0483
     32 C          -6.6333   -2.5482    2.5630 C.ar    1  UNL1       -0.0348
     33 C          -3.1143   -0.9733    1.8776 C.3     1  UNL1        0.0333
     34 C          -1.8947   -0.1244    1.5033 C.3     1  UNL1        0.0141
     35 H           0.6497    1.9139   -0.7481 H       1  UNL1        0.0249
     36 H          -0.7658    1.2374   -1.5888 H       1  UNL1        0.0249
     37 H          -0.9470    1.9361    0.0382 H       1  UNL1        0.0249
     38 H           3.0585    1.3033   -1.2445 H       1  UNL1        0.0467
     39 H           2.0438    1.0395    0.1971 H       1  UNL1        0.0467
     40 H           4.0714    1.8314    1.5358 H       1  UNL1        0.0233
     41 H           5.6016    0.9306    1.4120 H       1  UNL1        0.0233
     42 H           5.0492    1.9376    0.0522 H       1  UNL1        0.0233
     43 H           5.1962   -0.0370   -1.4914 H       1  UNL1        0.0271
     44 H           5.7825   -1.0177   -0.1269 H       1  UNL1        0.0271
     45 H           5.9595   -3.0246   -1.5855 H       1  UNL1        0.0233
     46 H           4.5584   -3.5594   -2.5442 H       1  UNL1        0.0233
     47 H           5.4072   -2.0545   -2.9720 H       1  UNL1        0.0233
     48 H           2.3467   -2.3020   -2.3248 H       1  UNL1        0.0467
     49 H           3.2528   -0.8736   -2.8870 H       1  UNL1        0.0467
     50 H          -2.4922    0.4209   -1.0133 H       1  UNL1        0.0440
     51 H          -1.6699   -0.9782   -1.7456 H       1  UNL1        0.0440
     52 H          -4.1426   -1.3455   -1.3750 H       1  UNL1        0.0456
     53 H          -3.1158   -2.5280   -0.5218 H       1  UNL1        0.0456
     54 H          -6.7612   -2.7641   -0.8008 H       1  UNL1        0.0637
     55 H          -7.9299   -4.8541   -0.2270 H       1  UNL1        0.0624
     56 H          -7.4418   -3.9883    3.9205 H       1  UNL1        0.0624
     57 H          -6.2698   -1.9001    3.3467 H       1  UNL1        0.0637
     58 H          -3.6482   -0.5031    2.7034 H       1  UNL1        0.0456
     59 H          -2.7896   -1.9721    2.1693 H       1  UNL1        0.0456
     60 H          -1.1767   -0.1377    2.3233 H       1  UNL1        0.0440
     61 H          -2.2102    0.9013    1.3123 H       1  UNL1        0.0440
@<TRIPOS>BOND
     1     1     2    1
     2     1    35    1
     3     1    36    1
     4     1    37    1
     5     2     3    1
     6     2     4    1
     7     2    16    1
     8     4     5    2
     9     4     6   am
    10     6    15    1
    11     6     7    1
    12     7     8    1
    13     7    38    1
    14     7    39    1
    15     8     9    1
    16     8    10    1
    17     8    11    1
    18    10    40    1
    19    10    41    1
    20    10    42    1
    21    11    12    1
    22    11    43    1
    23    11    44    1
    24    12    13    1
    25    12    14    1
    26    12    15    1
    27    14    45    1
    28    14    46    1
    29    14    47    1
    30    15    48    1
    31    15    49    1
    32    16    34    1
    33    16    17    1
    34    17    18    1
    35    17    50    1
    36    17    51    1
    37    18    19    1
    38    18    52    1
    39    18    53    1
    40    20    19    1
    41    19    33    1
    42    20    21    2
    43    20    22    2
    44    20    23    1
    45    23    32   ar
    46    23    24   ar
    47    24    25   ar
    48    24    54    1
    49    25    26   ar
    50    25    55    1
    51    26    27    1
    52    26    31   ar
    53    27    28    1
    54    27    29    1
    55    27    30    1
    56    31    32   ar
    57    31    56    1
    58    32    57    1
    59    33    34    1
    60    33    58    1
    61    33    59    1
    62    34    60    1
    63    34    61    1
