@<TRIPOS>MOLECULE
ZINC000012438635
 41 42 0 0 0
SMALL
GASTEIGER

@<TRIPOS>ATOM
      1 C          -0.0173    1.4248    0.0099 C.3     1  UNL1        0.0371
      2 O           0.0021   -0.0041    0.0020 O.3     1  UNL1       -0.3738
      3 C           0.6518   -0.5703   -1.1379 C.3     1  UNL1        0.1235
      4 C           0.6137   -2.0738   -1.0425 C.2     1  UNL1        0.2413
      5 O           0.0824   -2.6078   -0.0920 O.2     1  UNL1       -0.2731
      6 N           1.1699   -2.8249   -2.0135 N.am    1  UNL1       -0.2989
      7 C           1.8225   -2.1924   -3.1680 C.3     1  UNL1        0.0148
      8 C           1.2133   -2.7632   -4.4525 C.3     1  UNL1       -0.0365
      9 C           1.3201   -4.2897   -4.4285 C.3     1  UNL1       -0.0403
     10 C           0.5343   -4.8390   -3.2357 C.3     1  UNL1        0.0379
     11 H          -0.5079   -4.5291   -3.3127 H       1  UNL1        0.0396
     12 C           0.6126   -6.3440   -3.2319 C.2     1  UNL1        0.1677
     13 O           1.5892   -6.9014   -3.6855 O.2     1  UNL1       -0.2917
     14 C          -0.4963   -7.1371   -2.6776 C.ar    1  UNL1        0.0178
     15 C          -1.6269   -6.4980   -2.1588 C.ar    1  UNL1       -0.0507
     16 C          -2.6616   -7.2481   -1.6412 C.ar    1  UNL1       -0.0495
     17 C          -2.5832   -8.6299   -1.6339 C.ar    1  UNL1        0.0548
     18 C          -3.7187   -9.4421   -1.0663 C.3     1  UNL1        0.4174
     19 F          -4.6375   -9.7319   -2.0808 F       1  UNL1       -0.1659
     20 F          -3.2184  -10.6358   -0.5353 F       1  UNL1       -0.1659
     21 F          -4.3544   -8.7125   -0.0559 F       1  UNL1       -0.1659
     22 C          -1.4677   -9.2698   -2.1456 C.ar    1  UNL1       -0.0495
     23 C          -0.4274   -8.5339   -2.6723 C.ar    1  UNL1       -0.0507
     24 C           1.1407   -4.2918   -1.9346 C.3     1  UNL1        0.0246
     25 H           1.0053    1.8021    0.0021 H       1  UNL1        0.0524
     26 H          -0.5445    1.7859   -0.8732 H       1  UNL1        0.0524
     27 H          -0.5275    1.7763    0.9067 H       1  UNL1        0.0524
     28 H           0.1385   -0.2506   -2.0447 H       1  UNL1        0.0656
     29 H           1.6883   -0.2344   -1.1694 H       1  UNL1        0.0656
     30 H           1.6607   -1.1150   -3.1342 H       1  UNL1        0.0464
     31 H           2.8914   -2.4044   -3.1450 H       1  UNL1        0.0464
     32 H           0.1648   -2.4728   -4.5181 H       1  UNL1        0.0281
     33 H           1.7537   -2.3742   -5.3155 H       1  UNL1        0.0281
     34 H           0.9096   -4.6970   -5.3524 H       1  UNL1        0.0273
     35 H           2.3671   -4.5790   -4.3380 H       1  UNL1        0.0273
     36 H          -1.6892   -5.4198   -2.1631 H       1  UNL1        0.0625
     37 H          -3.5354   -6.7561   -1.2401 H       1  UNL1        0.0623
     38 H          -1.4140  -10.3484   -2.1363 H       1  UNL1        0.0623
     39 H           0.4424   -9.0346   -3.0712 H       1  UNL1        0.0625
     40 H           2.1532   -4.6767   -1.8131 H       1  UNL1        0.0471
     41 H           0.5268   -4.5988   -1.0879 H       1  UNL1        0.0471
@<TRIPOS>BOND
     1     1     2    1
     2     1    25    1
     3     1    26    1
     4     1    27    1
     5     2     3    1
     6     3     4    1
     7     3    28    1
     8     3    29    1
     9     4     5    2
    10     4     6   am
    11     6    24    1
    12     6     7    1
    13     7     8    1
    14     7    30    1
    15     7    31    1
    16     8     9    1
    17     8    32    1
    18     8    33    1
    19     9    10    1
    20     9    34    1
    21     9    35    1
    22    10    11    1
    23    10    12    1
    24    10    24    1
    25    12    13    2
    26    12    14    1
    27    14    23   ar
    28    14    15   ar
    29    15    16   ar
    30    15    36    1
    31    16    17   ar
    32    16    37    1
    33    17    18    1
    34    17    22   ar
    35    18    19    1
    36    18    20    1
    37    18    21    1
    38    22    23   ar
    39    22    38    1
    40    23    39    1
    41    24    40    1
    42    24    41    1
