@<TRIPOS>MOLECULE
ZINC000021838856
 53 55 0 0 0
SMALL
GASTEIGER

@<TRIPOS>ATOM
      1 C           1.3771   -2.2658    1.4798 C.3     1  UNL1        0.0707
      2 S           2.4644   -3.7133    1.3651 S.O2    1  UNL1        0.0291
      3 O           3.6233   -3.5312    2.1670 O.2     1  UNL1       -0.1583
      4 O           1.7063   -4.9132    1.4350 O.2     1  UNL1       -0.1583
      5 N           3.0340   -3.6801   -0.1895 N.3     1  UNL1       -0.1784
      6 C           2.3078   -4.3667   -1.2670 C.3     1  UNL1        0.0360
      7 C           2.0100   -3.3542   -2.3798 C.3     1  UNL1        0.0292
      8 N           3.2505   -2.6372   -2.7067 N.am    1  UNL1       -0.2961
      9 C           3.7137   -2.6094   -3.9721 C.2     1  UNL1        0.2534
     10 O           3.1055   -3.1794   -4.8531 O.2     1  UNL1       -0.2719
     11 C           4.9872   -1.8701   -4.2923 C.3     1  UNL1        0.1686
     12 O           5.2715   -1.9878   -5.7113 O.3     1  UNL1       -0.4517
     13 C           6.3844   -1.3783   -6.1649 C.2     1  UNL1        0.3402
     14 O           7.0976   -0.7652   -5.3957 O.2     1  UNL1       -0.2449
     15 C           6.7366   -1.4554   -7.5951 C.ar    1  UNL1        0.0667
     16 C           5.9956   -2.2633   -8.4583 C.ar    1  UNL1       -0.0472
     17 C           6.3297   -2.3315   -9.7950 C.ar    1  UNL1       -0.0609
     18 C           7.3983   -1.6019  -10.2887 C.ar    1  UNL1       -0.0611
     19 C           8.1431   -0.7971   -9.4496 C.ar    1  UNL1       -0.0532
     20 C           7.8186   -0.7102   -8.0991 C.ar    1  UNL1       -0.0039
     21 C           8.6148    0.1528   -7.1951 C.ar    1  UNL1       -0.0171
     22 C           8.0027    1.2017   -6.5099 C.ar    1  UNL1       -0.0535
     23 C           8.7493    2.0016   -5.6691 C.ar    1  UNL1       -0.0495
     24 C          10.1023    1.7646   -5.5053 C.ar    1  UNL1        0.0548
     25 C          10.9119    2.6415   -4.5852 C.3     1  UNL1        0.4174
     26 F          10.8985    2.1013   -3.2948 F       1  UNL1       -0.1659
     27 F          12.2303    2.7113   -5.0479 F       1  UNL1       -0.1659
     28 F          10.3584    3.9261   -4.5588 F       1  UNL1       -0.1659
     29 C          10.7151    0.7255   -6.1825 C.ar    1  UNL1       -0.0495
     30 C           9.9779   -0.0845   -7.0219 C.ar    1  UNL1       -0.0535
     31 C           3.9767   -1.9506   -1.6292 C.3     1  UNL1        0.0292
     32 C           4.2716   -2.9584   -0.5173 C.3     1  UNL1        0.0360
     33 H           1.9521   -1.3624    1.2763 H       1  UNL1        0.0479
     34 H           0.5728   -2.3568    0.7496 H       1  UNL1        0.0479
     35 H           0.9529   -2.2085    2.4822 H       1  UNL1        0.0479
     36 H           2.9209   -5.1761   -1.6634 H       1  UNL1        0.0459
     37 H           1.3723   -4.7694   -0.8788 H       1  UNL1        0.0459
     38 H           1.6467   -3.8784   -3.2637 H       1  UNL1        0.0478
     39 H           1.2569   -2.6447   -2.0369 H       1  UNL1        0.0478
     40 H           4.8723   -0.8182   -4.0308 H       1  UNL1        0.0796
     41 H           5.8099   -2.2989   -3.7201 H       1  UNL1        0.0796
     42 H           5.1612   -2.8352   -8.0801 H       1  UNL1        0.0626
     43 H           5.7545   -2.9580  -10.4606 H       1  UNL1        0.0618
     44 H           7.6511   -1.6632  -11.3369 H       1  UNL1        0.0618
     45 H           8.9752   -0.2316   -9.8423 H       1  UNL1        0.0624
     46 H           6.9465    1.3879   -6.6373 H       1  UNL1        0.0624
     47 H           8.2764    2.8145   -5.1381 H       1  UNL1        0.0623
     48 H          11.7719    0.5454   -6.0509 H       1  UNL1        0.0623
     49 H          10.4574   -0.8954   -7.5500 H       1  UNL1        0.0624
     50 H           4.9123   -1.5479   -2.0173 H       1  UNL1        0.0478
     51 H           3.3637   -1.1412   -1.2328 H       1  UNL1        0.0478
     52 H           4.6348   -2.4329    0.3658 H       1  UNL1        0.0459
     53 H           5.0241   -3.6695   -0.8583 H       1  UNL1        0.0459
@<TRIPOS>BOND
     1     1     2    1
     2     1    33    1
     3     1    34    1
     4     1    35    1
     5     2     3    2
     6     2     4    2
     7     2     5    1
     8     5    32    1
     9     5     6    1
    10     6     7    1
    11     6    36    1
    12     6    37    1
    13     7     8    1
    14     7    38    1
    15     7    39    1
    16     8     9   am
    17     8    31    1
    18     9    10    2
    19     9    11    1
    20    11    12    1
    21    11    40    1
    22    11    41    1
    23    12    13    1
    24    13    14    2
    25    13    15    1
    26    15    20   ar
    27    15    16   ar
    28    16    17   ar
    29    16    42    1
    30    17    18   ar
    31    17    43    1
    32    18    19   ar
    33    18    44    1
    34    19    20   ar
    35    19    45    1
    36    20    21    1
    37    21    30   ar
    38    21    22   ar
    39    22    23   ar
    40    22    46    1
    41    23    24   ar
    42    23    47    1
    43    24    25    1
    44    24    29   ar
    45    25    26    1
    46    25    27    1
    47    25    28    1
    48    29    30   ar
    49    29    48    1
    50    30    49    1
    51    31    32    1
    52    31    50    1
    53    31    51    1
    54    32    52    1
    55    32    53    1
