@<TRIPOS>MOLECULE
ZINC000408604254
 53 54 0 0 0
SMALL
GASTEIGER

@<TRIPOS>ATOM
      1 C          -0.0187    1.5258    0.0104 C.3     1  UNL1       -0.0507
      2 C           0.0021   -0.0041    0.0020 C.3     1  UNL1        0.0177
      3 N          -1.3723   -0.5112    0.0124 N.3     1  UNL1       -0.1771
      4 C          -2.1099   -0.6542   -1.2453 C.3     1  UNL1        0.0177
      5 C          -1.7727   -2.0031   -1.8836 C.3     1  UNL1       -0.0507
      6 S          -2.0922   -0.9227    1.4458 S.O2    1  UNL1        0.0608
      7 O          -3.1196   -1.8512    1.1269 O.2     1  UNL1       -0.1528
      8 O          -1.0393   -1.2108    2.3555 O.2     1  UNL1       -0.1528
      9 C          -2.8978    0.5199    2.0580 C.ar    1  UNL1        0.1057
     10 C          -2.2144    1.3948    2.8821 C.ar    1  UNL1       -0.0319
     11 C          -2.8437    2.5265    3.3633 C.ar    1  UNL1       -0.0181
     12 C          -4.1624    2.7850    3.0187 C.ar    1  UNL1        0.1213
     13 O          -4.7836    3.8979    3.4905 O.3     1  UNL1       -0.4828
     14 C          -6.1417    4.0999    3.0945 C.3     1  UNL1        0.1651
     15 C          -6.6600    5.3744    3.7095 C.2     1  UNL1        0.2509
     16 O          -5.9375    6.0437    4.4172 O.2     1  UNL1       -0.2721
     17 N          -7.9264    5.7703    3.4731 N.am    1  UNL1       -0.3097
     18 C          -8.4302    7.0092    4.0709 C.3     1  UNL1        0.0232
     19 C          -8.0491    8.1956    3.1832 C.3     1  UNL1       -0.0345
     20 C          -8.5752    9.4896    3.8075 C.3     1  UNL1       -0.0514
     21 C         -10.0984    9.4136    3.9311 C.3     1  UNL1       -0.0529
     22 C         -10.4795    8.2272    4.8188 C.3     1  UNL1       -0.0514
     23 C          -9.9533    6.9333    4.1944 C.3     1  UNL1       -0.0345
     24 C          -4.8459    1.9058    2.1913 C.ar    1  UNL1       -0.0181
     25 C          -4.2105    0.7780    1.7088 C.ar    1  UNL1       -0.0319
     26 H           1.0039    1.9031    0.0027 H       1  UNL1        0.0243
     27 H          -0.5459    1.8868   -0.8726 H       1  UNL1        0.0243
     28 H          -0.5289    1.8773    0.9072 H       1  UNL1        0.0243
     29 H           0.5123   -0.3556   -0.8948 H       1  UNL1        0.0441
     30 H           0.5293   -0.3651    0.8851 H       1  UNL1        0.0441
     31 H          -3.1804   -0.6037   -1.0465 H       1  UNL1        0.0441
     32 H          -1.8283    0.1500   -1.9251 H       1  UNL1        0.0441
     33 H          -2.0544   -2.8073   -1.2038 H       1  UNL1        0.0243
     34 H          -2.3215   -2.1096   -2.8194 H       1  UNL1        0.0243
     35 H          -0.7022   -2.0536   -2.0825 H       1  UNL1        0.0243
     36 H          -1.1877    1.1931    3.1500 H       1  UNL1        0.0638
     37 H          -2.3096    3.2093    4.0075 H       1  UNL1        0.0655
     38 H          -6.1966    4.1721    2.0083 H       1  UNL1        0.0795
     39 H          -6.7479    3.2600    3.4339 H       1  UNL1        0.0795
     40 H          -8.5043    5.2349    2.9071 H       1  UNL1        0.1491
     41 H          -7.9915    7.1399    5.0601 H       1  UNL1        0.0498
     42 H          -6.9640    8.2497    3.0951 H       1  UNL1        0.0283
     43 H          -8.4878    8.0649    2.1939 H       1  UNL1        0.0283
     44 H          -8.1365    9.6203    4.7967 H       1  UNL1        0.0266
     45 H          -8.3037   10.3348    3.1751 H       1  UNL1        0.0266
     46 H         -10.4732   10.3354    4.3759 H       1  UNL1        0.0265
     47 H         -10.5371    9.2829    2.9418 H       1  UNL1        0.0265
     48 H         -10.0408    8.3579    5.8080 H       1  UNL1        0.0266
     49 H         -11.5646    8.1731    4.9068 H       1  UNL1        0.0266
     50 H         -10.3920    6.8026    3.2052 H       1  UNL1        0.0283
     51 H         -10.2249    6.0881    4.8269 H       1  UNL1        0.0283
     52 H          -5.8726    2.1046    1.9219 H       1  UNL1        0.0655
     53 H          -4.7420    0.0934    1.0644 H       1  UNL1        0.0638
@<TRIPOS>BOND
     1     1     2    1
     2     1    26    1
     3     1    27    1
     4     1    28    1
     5     2     3    1
     6     2    29    1
     7     2    30    1
     8     3     4    1
     9     6     3    1
    10     4     5    1
    11     4    31    1
    12     4    32    1
    13     5    33    1
    14     5    34    1
    15     5    35    1
    16     6     7    2
    17     6     8    2
    18     6     9    1
    19     9    25   ar
    20     9    10   ar
    21    10    11   ar
    22    10    36    1
    23    11    12   ar
    24    11    37    1
    25    12    13    1
    26    12    24   ar
    27    13    14    1
    28    14    15    1
    29    14    38    1
    30    14    39    1
    31    15    16    2
    32    15    17   am
    33    17    18    1
    34    17    40    1
    35    18    23    1
    36    18    19    1
    37    18    41    1
    38    19    20    1
    39    19    42    1
    40    19    43    1
    41    20    21    1
    42    20    44    1
    43    20    45    1
    44    21    22    1
    45    21    46    1
    46    21    47    1
    47    22    23    1
    48    22    48    1
    49    22    49    1
    50    23    50    1
    51    23    51    1
    52    24    25   ar
    53    24    52    1
    54    25    53    1
