@<TRIPOS>MOLECULE
ZINC000013565106
 50 52 0 0 0
SMALL
GASTEIGER

@<TRIPOS>ATOM
      1 C          -0.0178    1.4608    0.0101 C.3     1  UNL1        0.0154
      2 N           0.0021   -0.0041    0.0020 N.ar    1  UNL1       -0.3089
      3 C           0.0088   -0.8225   -1.0909 C.ar    1  UNL1        0.1918
      4 S          -0.0042   -0.3166   -2.7786 S.3     1  UNL1       -0.0767
      5 C           0.0142   -1.9336   -3.5916 C.3     1  UNL1        0.0774
      6 C           0.0061   -1.7444   -5.0866 C.2     1  UNL1        0.2208
      7 N           0.0173   -2.8176   -5.9018 N.am    1  UNL1       -0.3286
      8 O          -0.0105   -0.6263   -5.5563 O.2     1  UNL1       -0.2751
      9 N           0.0274   -2.0576   -0.6463 N.ar    1  UNL1       -0.1225
     10 N           0.0325   -2.0589    0.6390 N.ar    1  UNL1       -0.1332
     11 C           0.0237   -0.8356    1.0876 C.ar    1  UNL1        0.1370
     12 C           0.0265   -0.4150    2.5347 C.3     1  UNL1        0.0215
     13 C          -1.2162   -0.9747    3.2307 C.3     1  UNL1       -0.0288
     14 C          -1.2277   -0.5165    4.6925 C.3     1  UNL1        0.0211
     15 N           0.0423   -0.9059    5.3202 N.3     1  UNL1       -0.1765
     16 S           0.0553   -1.7899    6.7204 S.O2    1  UNL1        0.0609
     17 O           1.3056   -1.5337    7.3451 O.2     1  UNL1       -0.1528
     18 O          -1.1937   -1.5539    7.3556 O.2     1  UNL1       -0.1528
     19 C           0.0671   -3.4915    6.2629 C.ar    1  UNL1        0.1055
     20 C          -1.1254   -4.1671    6.0829 C.ar    1  UNL1       -0.0348
     21 C          -1.1161   -5.5020    5.7240 C.ar    1  UNL1       -0.0483
     22 C           0.0857   -6.1611    5.5446 C.ar    1  UNL1        0.0549
     23 C           0.0958   -7.6166    5.1538 C.3     1  UNL1        0.4174
     24 F           0.0963   -7.7249    3.7590 F       1  UNL1       -0.1659
     25 F           1.2424   -8.2300    5.6696 F       1  UNL1       -0.1659
     26 F          -1.0421   -8.2459    5.6699 F       1  UNL1       -0.1659
     27 C           1.2782   -5.4852    5.7232 C.ar    1  UNL1       -0.0483
     28 C           1.2689   -4.1493    6.0784 C.ar    1  UNL1       -0.0348
     29 C           1.3007   -0.4965    4.6817 C.3     1  UNL1        0.0211
     30 C           1.2839   -0.9549    3.2200 C.3     1  UNL1       -0.0288
     31 H           1.0048    1.8381    0.0023 H       1  UNL1        0.0457
     32 H          -0.5450    1.8219   -0.8730 H       1  UNL1        0.0457
     33 H          -0.5280    1.8123    0.9069 H       1  UNL1        0.0457
     34 H           0.9126   -2.4772   -3.2990 H       1  UNL1        0.0475
     35 H          -0.8672   -2.5008   -3.2923 H       1  UNL1        0.0475
     36 H           0.0306   -3.7119   -5.5262 H       1  UNL1        0.1450
     37 H           0.0120   -2.6958   -6.8641 H       1  UNL1        0.1450
     38 H           0.0181    0.6732    2.5966 H       1  UNL1        0.0380
     39 H          -2.1110   -0.6083    2.7276 H       1  UNL1        0.0285
     40 H          -1.1960   -2.0638    3.1910 H       1  UNL1        0.0285
     41 H          -1.3392    0.5670    4.7349 H       1  UNL1        0.0444
     42 H          -2.0559   -0.9920    5.2179 H       1  UNL1        0.0444
     43 H          -2.0643   -3.6521    6.2231 H       1  UNL1        0.0637
     44 H          -2.0478   -6.0300    5.5841 H       1  UNL1        0.0624
     45 H           2.2171   -6.0001    5.5827 H       1  UNL1        0.0624
     46 H           2.2005   -3.6211    6.2180 H       1  UNL1        0.0637
     47 H           1.3954    0.5886    4.7232 H       1  UNL1        0.0444
     48 H           2.1408   -0.9588    5.2000 H       1  UNL1        0.0444
     49 H           1.2805   -2.0442    3.1804 H       1  UNL1        0.0285
     50 H           2.1685   -0.5745    2.7093 H       1  UNL1        0.0285
@<TRIPOS>BOND
     1     1     2    1
     2     1    31    1
     3     1    32    1
     4     1    33    1
     5     2    11   ar
     6     2     3   ar
     7     3     4    1
     8     3     9   ar
     9     4     5    1
    10     5     6    1
    11     5    34    1
    12     5    35    1
    13     6     7   am
    14     6     8    2
    15     7    36    1
    16     7    37    1
    17     9    10   ar
    18    10    11   ar
    19    11    12    1
    20    12    30    1
    21    12    13    1
    22    12    38    1
    23    13    14    1
    24    13    39    1
    25    13    40    1
    26    14    15    1
    27    14    41    1
    28    14    42    1
    29    16    15    1
    30    15    29    1
    31    16    17    2
    32    16    18    2
    33    16    19    1
    34    19    28   ar
    35    19    20   ar
    36    20    21   ar
    37    20    43    1
    38    21    22   ar
    39    21    44    1
    40    22    23    1
    41    22    27   ar
    42    23    24    1
    43    23    25    1
    44    23    26    1
    45    27    28   ar
    46    27    45    1
    47    28    46    1
    48    29    30    1
    49    29    47    1
    50    29    48    1
    51    30    49    1
    52    30    50    1
