@<TRIPOS>MOLECULE
ZINC000012897452
 47 48 0 0 0
SMALL
GASTEIGER

@<TRIPOS>ATOM
      1 C          -0.0187    1.5258    0.0104 C.3     1  UNL1       -0.0507
      2 C           0.0021   -0.0041    0.0020 C.3     1  UNL1        0.0177
      3 N           0.7106   -0.4894    1.1889 N.3     1  UNL1       -0.1771
      4 C          -0.0062   -0.6460    2.4569 C.3     1  UNL1        0.0177
      5 C          -0.6935   -2.0126    2.4888 C.3     1  UNL1       -0.0507
      6 S           2.3218   -0.8609    1.0971 S.O2    1  UNL1        0.0608
      7 O           2.5823   -1.7795    2.1496 O.2     1  UNL1       -0.1528
      8 O           2.5905   -1.1471   -0.2686 O.2     1  UNL1       -0.1528
      9 C           3.2182    0.6060    1.4837 C.ar    1  UNL1        0.1055
     10 C           3.5675    1.4857    0.4746 C.ar    1  UNL1       -0.0346
     11 C           4.2697    2.6358    0.7704 C.ar    1  UNL1       -0.0478
     12 C           4.6273    2.9112    2.0912 C.ar    1  UNL1        0.0368
     13 C           5.3794    4.1420    2.4156 C.2     1  UNL1        0.2445
     14 O           5.6877    4.9167    1.5311 O.2     1  UNL1       -0.2702
     15 N           5.7232    4.4050    3.6919 N.am    1  UNL1       -0.3028
     16 C           6.4685    5.6246    4.0133 C.3     1  UNL1        0.0884
     17 C           6.7252    5.6801    5.4973 C.2     1  UNL1        0.2304
     18 O           6.3251    4.7886    6.2156 O.2     1  UNL1       -0.2741
     19 N           7.3995    6.7203    6.0261 N.am    1  UNL1       -0.3112
     20 C           7.6491    6.7742    7.4687 C.3     1  UNL1        0.0233
     21 C           9.0465    7.1946    7.9286 C.3     1  UNL1       -0.0328
     22 C           7.8652    8.1523    8.0972 C.3     1  UNL1       -0.0328
     23 C           4.2713    2.0197    3.1045 C.ar    1  UNL1       -0.0478
     24 C           3.5646    0.8758    2.7958 C.ar    1  UNL1       -0.0346
     25 H           1.0039    1.9031    0.0027 H       1  UNL1        0.0243
     26 H          -0.5459    1.8868   -0.8726 H       1  UNL1        0.0243
     27 H          -0.5289    1.8773    0.9072 H       1  UNL1        0.0243
     28 H          -1.0205   -0.3814    0.0098 H       1  UNL1        0.0441
     29 H           0.5123   -0.3556   -0.8948 H       1  UNL1        0.0441
     30 H           0.6997   -0.5749    3.2845 H       1  UNL1        0.0441
     31 H          -0.7557    0.1399    2.5501 H       1  UNL1        0.0441
     32 H          -1.3993   -2.0837    1.6613 H       1  UNL1        0.0243
     33 H           0.0560   -2.7985    2.3957 H       1  UNL1        0.0243
     34 H          -1.2268   -2.1291    3.4323 H       1  UNL1        0.0243
     35 H           3.2902    1.2715   -0.5470 H       1  UNL1        0.0637
     36 H           4.5424    3.3214   -0.0183 H       1  UNL1        0.0626
     37 H           5.4772    3.7868    4.3977 H       1  UNL1        0.1495
     38 H           7.4191    5.6207    3.4800 H       1  UNL1        0.0558
     39 H           5.8866    6.4959    3.7125 H       1  UNL1        0.0558
     40 H           7.7195    7.4333    5.4515 H       1  UNL1        0.1490
     41 H           7.1268    6.0257    8.0644 H       1  UNL1        0.0498
     42 H           9.4438    6.7225    8.8271 H       1  UNL1        0.0284
     43 H           9.7801    7.4311    7.1579 H       1  UNL1        0.0284
     44 H           7.8217    9.0188    7.4374 H       1  UNL1        0.0284
     45 H           7.4855    8.3102    9.1066 H       1  UNL1        0.0284
     46 H           4.5454    2.2268    4.1284 H       1  UNL1        0.0626
     47 H           3.2883    0.1853    3.5789 H       1  UNL1        0.0637
@<TRIPOS>BOND
     1     1     2    1
     2     1    25    1
     3     1    26    1
     4     1    27    1
     5     2     3    1
     6     2    28    1
     7     2    29    1
     8     3     4    1
     9     6     3    1
    10     4     5    1
    11     4    30    1
    12     4    31    1
    13     5    32    1
    14     5    33    1
    15     5    34    1
    16     6     7    2
    17     6     8    2
    18     6     9    1
    19     9    24   ar
    20     9    10   ar
    21    10    11   ar
    22    10    35    1
    23    11    12   ar
    24    11    36    1
    25    12    13    1
    26    12    23   ar
    27    13    14    2
    28    13    15   am
    29    15    16    1
    30    15    37    1
    31    16    17    1
    32    16    38    1
    33    16    39    1
    34    17    18    2
    35    17    19   am
    36    19    20    1
    37    19    40    1
    38    20    22    1
    39    20    21    1
    40    20    41    1
    41    21    22    1
    42    21    42    1
    43    21    43    1
    44    22    44    1
    45    22    45    1
    46    23    24   ar
    47    23    46    1
    48    24    47    1
