@<TRIPOS>MOLECULE
ZINC000006946237
 52 53 0 0 0
SMALL
GASTEIGER

@<TRIPOS>ATOM
      1 C          -0.0187    1.5258    0.0104 C.3     1  UNL1       -0.0652
      2 C           0.0021   -0.0041    0.0020 C.3     1  UNL1       -0.0542
      3 C           0.7421   -0.5109    1.2415 C.3     1  UNL1       -0.0350
      4 C           0.7628   -2.0407    1.2331 C.3     1  UNL1        0.0203
      5 H          -0.2567   -2.4175    1.1513 H       1  UNL1        0.0495
      6 C           1.3918   -2.5494    2.5318 C.3     1  UNL1       -0.0466
      7 N           1.5508   -2.5122    0.0916 N.am    1  UNL1       -0.3116
      8 C           1.3205   -3.7345   -0.4273 C.2     1  UNL1        0.2290
      9 O           0.4611   -4.4442    0.0507 O.2     1  UNL1       -0.2743
     10 C           2.1311   -4.2195   -1.6016 C.3     1  UNL1        0.0971
     11 N           1.6924   -5.5665   -1.9748 N.3     1  UNL1       -0.1635
     12 C           0.5477   -5.7417   -2.8721 C.3     1  UNL1        0.0460
     13 C           1.0128   -5.6533   -4.3029 C.ar    1  UNL1       -0.0317
     14 C           1.0416   -4.4300   -4.9459 C.ar    1  UNL1       -0.0573
     15 C           1.4682   -4.3489   -6.2583 C.ar    1  UNL1       -0.0615
     16 C           1.8664   -5.4911   -6.9275 C.ar    1  UNL1       -0.0617
     17 C           1.8385   -6.7143   -6.2841 C.ar    1  UNL1       -0.0615
     18 C           1.4159   -6.7947   -4.9704 C.ar    1  UNL1       -0.0573
     19 S           2.4905   -6.8911   -1.3824 S.O2    1  UNL1        0.0616
     20 O           2.3664   -7.9079   -2.3672 O.2     1  UNL1       -0.1528
     21 O           3.7432   -6.4230   -0.9020 O.2     1  UNL1       -0.1528
     22 C           1.5950   -7.4521    0.0276 C.ar    1  UNL1        0.1055
     23 C           1.8994   -6.9567    1.2817 C.ar    1  UNL1       -0.0353
     24 C           1.1969   -7.3968    2.3879 C.ar    1  UNL1       -0.0599
     25 C           0.1896   -8.3320    2.2399 C.ar    1  UNL1       -0.0616
     26 C          -0.1154   -8.8266    0.9856 C.ar    1  UNL1       -0.0599
     27 C           0.5843   -8.3833   -0.1211 C.ar    1  UNL1       -0.0353
     28 H           1.0039    1.9031    0.0027 H       1  UNL1        0.0230
     29 H          -0.5459    1.8868   -0.8726 H       1  UNL1        0.0230
     30 H          -0.5289    1.8773    0.9072 H       1  UNL1        0.0230
     31 H          -1.0205   -0.3814    0.0098 H       1  UNL1        0.0263
     32 H           0.5123   -0.3556   -0.8948 H       1  UNL1        0.0263
     33 H           1.7647   -0.1336    1.2338 H       1  UNL1        0.0283
     34 H           0.2319   -0.1594    2.1383 H       1  UNL1        0.0283
     35 H           0.8055   -2.1987    3.3812 H       1  UNL1        0.0247
     36 H           1.4065   -3.6393    2.5258 H       1  UNL1        0.0247
     37 H           2.4113   -2.1727    2.6137 H       1  UNL1        0.0247
     38 H           2.2382   -1.9445   -0.2908 H       1  UNL1        0.1490
     39 H           1.9885   -3.5441   -2.4452 H       1  UNL1        0.0539
     40 H           3.1863   -4.2433   -1.3297 H       1  UNL1        0.0539
     41 H           0.0948   -6.7176   -2.6970 H       1  UNL1        0.0493
     42 H          -0.1875   -4.9602   -2.6801 H       1  UNL1        0.0493
     43 H           0.7305   -3.5377   -4.4231 H       1  UNL1        0.0621
     44 H           1.4901   -3.3932   -6.7609 H       1  UNL1        0.0618
     45 H           2.1990   -5.4278   -7.9530 H       1  UNL1        0.0618
     46 H           2.1493   -7.6067   -6.8070 H       1  UNL1        0.0618
     47 H           1.3941   -7.7504   -4.4677 H       1  UNL1        0.0621
     48 H           2.6863   -6.2261    1.3973 H       1  UNL1        0.0637
     49 H           1.4351   -7.0103    3.3678 H       1  UNL1        0.0618
     50 H          -0.3588   -8.6763    3.1042 H       1  UNL1        0.0618
     51 H          -0.9021   -9.5575    0.8700 H       1  UNL1        0.0618
     52 H           0.3460   -8.7698   -1.1011 H       1  UNL1        0.0637
@<TRIPOS>BOND
     1     1     2    1
     2     1    28    1
     3     1    29    1
     4     1    30    1
     5     2     3    1
     6     2    31    1
     7     2    32    1
     8     3     4    1
     9     3    33    1
    10     3    34    1
    11     4     5    1
    12     4     6    1
    13     4     7    1
    14     6    35    1
    15     6    36    1
    16     6    37    1
    17     7     8   am
    18     7    38    1
    19     8     9    2
    20     8    10    1
    21    10    11    1
    22    10    39    1
    23    10    40    1
    24    11    12    1
    25    19    11    1
    26    12    13    1
    27    12    41    1
    28    12    42    1
    29    13    18   ar
    30    13    14   ar
    31    14    15   ar
    32    14    43    1
    33    15    16   ar
    34    15    44    1
    35    16    17   ar
    36    16    45    1
    37    17    18   ar
    38    17    46    1
    39    18    47    1
    40    19    20    2
    41    19    21    2
    42    19    22    1
    43    22    27   ar
    44    22    23   ar
    45    23    24   ar
    46    23    48    1
    47    24    25   ar
    48    24    49    1
    49    25    26   ar
    50    25    50    1
    51    26    27   ar
    52    26    51    1
    53    27    52    1
