@<TRIPOS>MOLECULE
ZINC000408617279
 51 52 0 0 0
SMALL
GASTEIGER

@<TRIPOS>ATOM
      1 C          -0.0187    1.5258    0.0104 C.3     1  UNL1       -0.0507
      2 C           0.0021   -0.0041    0.0020 C.3     1  UNL1        0.0177
      3 N          -1.3723   -0.5112    0.0124 N.3     1  UNL1       -0.1771
      4 C          -2.1099   -0.6542   -1.2453 C.3     1  UNL1        0.0177
      5 C          -1.7727   -2.0031   -1.8836 C.3     1  UNL1       -0.0507
      6 S          -2.0922   -0.9227    1.4458 S.O2    1  UNL1        0.0608
      7 O          -3.1196   -1.8512    1.1269 O.2     1  UNL1       -0.1528
      8 O          -1.0393   -1.2108    2.3555 O.2     1  UNL1       -0.1528
      9 C          -2.8978    0.5199    2.0580 C.ar    1  UNL1        0.1057
     10 C          -2.2144    1.3948    2.8821 C.ar    1  UNL1       -0.0319
     11 C          -2.8437    2.5265    3.3633 C.ar    1  UNL1       -0.0181
     12 C          -4.1624    2.7850    3.0187 C.ar    1  UNL1        0.1213
     13 O          -4.7836    3.8979    3.4905 O.3     1  UNL1       -0.4828
     14 C          -6.1417    4.0999    3.0945 C.3     1  UNL1        0.1651
     15 C          -6.6600    5.3744    3.7095 C.2     1  UNL1        0.2507
     16 O          -5.9375    6.0437    4.4172 O.2     1  UNL1       -0.2721
     17 N          -7.9264    5.7703    3.4731 N.am    1  UNL1       -0.3100
     18 C          -8.4302    7.0092    4.0709 C.3     1  UNL1        0.0380
     19 C          -9.8843    7.2255    3.6470 C.3     1  UNL1        0.0742
     20 H          -9.9605    7.1977    2.5600 H       1  UNL1        0.0611
     21 C         -10.3859    8.5878    4.1724 C.3     1  UNL1       -0.0231
     22 C         -11.8424    8.2600    4.6003 C.3     1  UNL1       -0.0271
     23 C         -11.6808    6.8025    5.1010 C.3     1  UNL1        0.0482
     24 O         -10.7137    6.2071    4.2185 O.3     1  UNL1       -0.3750
     25 C          -4.8459    1.9058    2.1913 C.ar    1  UNL1       -0.0181
     26 C          -4.2105    0.7780    1.7088 C.ar    1  UNL1       -0.0319
     27 H           1.0039    1.9031    0.0027 H       1  UNL1        0.0243
     28 H          -0.5459    1.8868   -0.8726 H       1  UNL1        0.0243
     29 H          -0.5289    1.8773    0.9072 H       1  UNL1        0.0243
     30 H           0.5123   -0.3556   -0.8948 H       1  UNL1        0.0441
     31 H           0.5293   -0.3651    0.8851 H       1  UNL1        0.0441
     32 H          -3.1804   -0.6037   -1.0465 H       1  UNL1        0.0441
     33 H          -1.8283    0.1500   -1.9251 H       1  UNL1        0.0441
     34 H          -0.7022   -2.0536   -2.0825 H       1  UNL1        0.0243
     35 H          -2.0544   -2.8073   -1.2038 H       1  UNL1        0.0243
     36 H          -2.3215   -2.1096   -2.8194 H       1  UNL1        0.0243
     37 H          -1.1877    1.1931    3.1500 H       1  UNL1        0.0638
     38 H          -2.3096    3.2093    4.0075 H       1  UNL1        0.0655
     39 H          -6.1966    4.1721    2.0083 H       1  UNL1        0.0795
     40 H          -6.7479    3.2600    3.4339 H       1  UNL1        0.0795
     41 H          -8.5043    5.2349    2.9071 H       1  UNL1        0.1489
     42 H          -8.3753    6.9370    5.1571 H       1  UNL1        0.0487
     43 H          -7.8240    7.8491    3.7315 H       1  UNL1        0.0487
     44 H          -9.7947    8.9153    5.0275 H       1  UNL1        0.0291
     45 H         -10.3735    9.3372    3.3809 H       1  UNL1        0.0291
     46 H         -12.1729    8.9172    5.4046 H       1  UNL1        0.0288
     47 H         -12.5224    8.3101    3.7500 H       1  UNL1        0.0288
     48 H         -11.3136    6.7935    6.1272 H       1  UNL1        0.0560
     49 H         -12.6305    6.2719    5.0335 H       1  UNL1        0.0560
     50 H          -5.8726    2.1046    1.9219 H       1  UNL1        0.0655
     51 H          -4.7420    0.0934    1.0644 H       1  UNL1        0.0638
@<TRIPOS>BOND
     1     1     2    1
     2     1    27    1
     3     1    28    1
     4     1    29    1
     5     2     3    1
     6     2    30    1
     7     2    31    1
     8     3     4    1
     9     6     3    1
    10     4     5    1
    11     4    32    1
    12     4    33    1
    13     5    34    1
    14     5    35    1
    15     5    36    1
    16     6     7    2
    17     6     8    2
    18     6     9    1
    19     9    26   ar
    20     9    10   ar
    21    10    11   ar
    22    10    37    1
    23    11    12   ar
    24    11    38    1
    25    12    13    1
    26    12    25   ar
    27    13    14    1
    28    14    15    1
    29    14    39    1
    30    14    40    1
    31    15    16    2
    32    15    17   am
    33    17    18    1
    34    17    41    1
    35    18    19    1
    36    18    42    1
    37    18    43    1
    38    19    20    1
    39    19    24    1
    40    19    21    1
    41    21    22    1
    42    21    44    1
    43    21    45    1
    44    22    23    1
    45    22    46    1
    46    22    47    1
    47    23    24    1
    48    23    48    1
    49    23    49    1
    50    25    26   ar
    51    25    50    1
    52    26    51    1
