@<TRIPOS>MOLECULE
ZINC000020781431
 38 39 0 0 0
SMALL
GASTEIGER

@<TRIPOS>ATOM
      1 C          -0.0225    1.8097    0.0120 C.3     1  UNL1        0.0707
      2 S           0.0021   -0.0041    0.0020 S.O2    1  UNL1        0.0290
      3 O           0.8448   -0.4970    1.0346 O.2     1  UNL1       -0.1583
      4 O          -1.3093   -0.5195   -0.1821 O.2     1  UNL1       -0.1583
      5 N           0.7961   -0.3989   -1.3965 N.3     1  UNL1       -0.1807
      6 C           0.0550   -0.5829   -2.6518 C.3     1  UNL1        0.0202
      7 C           0.6756    0.3146   -3.7270 C.3     1  UNL1       -0.0379
      8 C           2.1732    0.0171   -3.8319 C.3     1  UNL1       -0.0407
      9 C           2.8511    0.3255   -2.4949 C.3     1  UNL1        0.0365
     10 H           2.6855    1.3712   -2.2357 H       1  UNL1        0.0394
     11 C           4.3309    0.0639   -2.6091 C.2     1  UNL1        0.1675
     12 O           4.7742   -1.0343   -2.3490 O.2     1  UNL1       -0.2917
     13 C           5.2378    1.1413   -3.0364 C.ar    1  UNL1        0.0177
     14 C           4.7310    2.4108   -3.3318 C.ar    1  UNL1       -0.0507
     15 C           5.5872    3.4150   -3.7316 C.ar    1  UNL1       -0.0495
     16 C           6.9448    3.1691   -3.8412 C.ar    1  UNL1        0.0548
     17 C           7.8735    4.2723   -4.2788 C.3     1  UNL1        0.4174
     18 F           8.3275    4.9725   -3.1559 F       1  UNL1       -0.1659
     19 F           8.9655    3.7208   -4.9575 F       1  UNL1       -0.1659
     20 F           7.1896    5.1477   -5.1292 F       1  UNL1       -0.1659
     21 C           7.4540    1.9153   -3.5506 C.ar    1  UNL1       -0.0495
     22 C           6.6116    0.9024   -3.1436 C.ar    1  UNL1       -0.0507
     23 C           2.2558   -0.5658   -1.4070 C.3     1  UNL1        0.0300
     24 H           1.0001    2.1870    0.0043 H       1  UNL1        0.0479
     25 H          -0.5497    2.1708   -0.8711 H       1  UNL1        0.0479
     26 H          -0.5327    2.1613    0.9088 H       1  UNL1        0.0479
     27 H           0.1188   -1.6252   -2.9643 H       1  UNL1        0.0444
     28 H          -0.9890   -0.3070   -2.5035 H       1  UNL1        0.0444
     29 H           0.1974    0.1169   -4.6863 H       1  UNL1        0.0278
     30 H           0.5305    1.3604   -3.4562 H       1  UNL1        0.0278
     31 H           2.3181   -1.0347   -4.0784 H       1  UNL1        0.0273
     32 H           2.6127    0.6370   -4.6134 H       1  UNL1        0.0273
     33 H           3.6718    2.6041   -3.2474 H       1  UNL1        0.0625
     34 H           5.1974    4.3960   -3.9601 H       1  UNL1        0.0623
     35 H           8.5146    1.7311   -3.6386 H       1  UNL1        0.0623
     36 H           7.0104   -0.0754   -2.9172 H       1  UNL1        0.0625
     37 H           2.6644   -0.2814   -0.4374 H       1  UNL1        0.0451
     38 H           2.4970   -1.6081   -1.6160 H       1  UNL1        0.0451
@<TRIPOS>BOND
     1     1     2    1
     2     1    24    1
     3     1    25    1
     4     1    26    1
     5     2     3    2
     6     2     4    2
     7     2     5    1
     8     5    23    1
     9     5     6    1
    10     6     7    1
    11     6    27    1
    12     6    28    1
    13     7     8    1
    14     7    29    1
    15     7    30    1
    16     8     9    1
    17     8    31    1
    18     8    32    1
    19     9    10    1
    20     9    11    1
    21     9    23    1
    22    11    12    2
    23    11    13    1
    24    13    22   ar
    25    13    14   ar
    26    14    15   ar
    27    14    33    1
    28    15    16   ar
    29    15    34    1
    30    16    17    1
    31    16    21   ar
    32    17    18    1
    33    17    19    1
    34    17    20    1
    35    21    22   ar
    36    21    35    1
    37    22    36    1
    38    23    37    1
    39    23    38    1
