@<TRIPOS>MOLECULE
ZINC000009691490
 37 38 0 0 0
SMALL
GASTEIGER

@<TRIPOS>ATOM
      1 C           0.7092   -2.7124    1.4679 C.3     1  UNL1        0.0707
      2 S           0.8540   -0.9290    1.1691 S.O2    1  UNL1        0.0296
      3 O          -0.3874   -0.2807    1.4096 O.2     1  UNL1       -0.1583
      4 O           2.0622   -0.4270    1.7238 O.2     1  UNL1       -0.1583
      5 N           1.0716   -0.8005   -0.4675 N.3     1  UNL1       -0.1695
      6 C          -0.0022   -0.7682   -1.4771 C.3     1  UNL1        0.0210
      7 C           0.6199   -0.0396   -2.6944 C.3     1  UNL1       -0.0366
      8 C           2.0771   -0.5714   -2.6645 C.3     1  UNL1       -0.0260
      9 C           2.3674   -0.6933   -1.1538 C.3     1  UNL1        0.1077
     10 H           2.9585   -1.5886   -0.9609 H       1  UNL1        0.0575
     11 C           3.1129    0.5258   -0.6751 C.2     1  UNL1        0.2361
     12 O           2.5127    1.4295   -0.1327 O.2     1  UNL1       -0.2737
     13 N           4.4465    0.6119   -0.8498 N.am    1  UNL1       -0.2842
     14 C           5.1256    1.7803   -0.4871 C.ar    1  UNL1        0.0335
     15 C           6.4295    1.7090   -0.0145 C.ar    1  UNL1       -0.0399
     16 C           7.0971    2.8641    0.3427 C.ar    1  UNL1       -0.0484
     17 C           6.4684    4.0906    0.2306 C.ar    1  UNL1        0.0549
     18 C           7.1996    5.3489    0.6217 C.3     1  UNL1        0.4174
     19 F           7.8793    5.8580   -0.4900 F       1  UNL1       -0.1659
     20 F           6.2808    6.2984    1.0817 F       1  UNL1       -0.1659
     21 F           8.1176    5.0584    1.6367 F       1  UNL1       -0.1659
     22 C           5.1703    4.1650   -0.2401 C.ar    1  UNL1       -0.0484
     23 C           4.4992    3.0141   -0.6043 C.ar    1  UNL1       -0.0399
     24 H          -0.1079   -3.1158    0.8698 H       1  UNL1        0.0479
     25 H           1.6410   -3.2043    1.1889 H       1  UNL1        0.0479
     26 H           0.5075   -2.8886    2.5244 H       1  UNL1        0.0479
     27 H          -0.2959   -1.7815   -1.7510 H       1  UNL1        0.0444
     28 H          -0.8606   -0.2122   -1.1002 H       1  UNL1        0.0444
     29 H           0.1185   -0.3257   -3.6190 H       1  UNL1        0.0279
     30 H           0.5956    1.0414   -2.5570 H       1  UNL1        0.0279
     31 H           2.1430   -1.5435   -3.1532 H       1  UNL1        0.0286
     32 H           2.7577    0.1420   -3.1292 H       1  UNL1        0.0286
     33 H           4.9355   -0.1361   -1.2269 H       1  UNL1        0.1549
     34 H           6.9209    0.7513    0.0739 H       1  UNL1        0.0636
     35 H           8.1111    2.8093    0.7103 H       1  UNL1        0.0624
     36 H           4.6820    5.1244   -0.3265 H       1  UNL1        0.0624
     37 H           3.4853    3.0728   -0.9718 H       1  UNL1        0.0636
@<TRIPOS>BOND
     1     1     2    1
     2     1    24    1
     3     1    25    1
     4     1    26    1
     5     2     3    2
     6     2     4    2
     7     2     5    1
     8     5     9    1
     9     5     6    1
    10     6     7    1
    11     6    27    1
    12     6    28    1
    13     7     8    1
    14     7    29    1
    15     7    30    1
    16     8     9    1
    17     8    31    1
    18     8    32    1
    19     9    10    1
    20     9    11    1
    21    11    12    2
    22    11    13   am
    23    13    14    1
    24    13    33    1
    25    14    23   ar
    26    14    15   ar
    27    15    16   ar
    28    15    34    1
    29    16    17   ar
    30    16    35    1
    31    17    18    1
    32    17    22   ar
    33    18    19    1
    34    18    20    1
    35    18    21    1
    36    22    23   ar
    37    22    36    1
    38    23    37    1
