@<TRIPOS>MOLECULE
ZINC000023805396
 49 51 0 0 0
SMALL
GASTEIGER

@<TRIPOS>ATOM
      1 O           0.0358    0.4824   -0.4317 O.2     1  UNL1       -0.1528
      2 S          -0.1346    1.8929   -0.4025 S.O2    1  UNL1        0.0609
      3 O           0.9465    2.8088   -0.5102 O.2     1  UNL1       -0.1528
      4 C          -1.2517    2.2862   -1.7071 C.ar    1  UNL1        0.1055
      5 C          -2.1300    1.3279   -2.1774 C.ar    1  UNL1       -0.0348
      6 C          -3.0065    1.6365   -3.2009 C.ar    1  UNL1       -0.0483
      7 C          -3.0049    2.9034   -3.7537 C.ar    1  UNL1        0.0549
      8 C          -3.9601    3.2397   -4.8699 C.3     1  UNL1        0.4174
      9 F          -5.1536    3.7310   -4.3301 F       1  UNL1       -0.1659
     10 F          -3.3872    4.2118   -5.6969 F       1  UNL1       -0.1659
     11 F          -4.2261    2.0883   -5.6187 F       1  UNL1       -0.1659
     12 C          -2.1276    3.8621   -3.2825 C.ar    1  UNL1       -0.0483
     13 C          -1.2538    3.5547   -2.2564 C.ar    1  UNL1       -0.0348
     14 N          -0.9027    2.2417    1.0225 N.3     1  UNL1       -0.1741
     15 C          -0.7979    3.5773    1.6293 C.3     1  UNL1        0.0333
     16 C          -2.2105    4.0816    1.9432 C.3     1  UNL1        0.0135
     17 N          -2.9138    3.0823    2.7586 N.3     1  UNL1       -0.2970
     18 C          -4.2073    3.5994    3.2250 C.3     1  UNL1        0.0292
     19 C          -3.9783    4.5890    4.3692 C.3     1  UNL1        0.0928
     20 H          -3.3191    5.3887    4.0315 H       1  UNL1        0.0656
     21 O          -3.3764    3.9098    5.4731 O.3     1  UNL1       -0.3859
     22 C          -5.2988    5.1743    4.7990 C.ar    1  UNL1       -0.0179
     23 C          -6.0847    4.5053    5.7186 C.ar    1  UNL1       -0.0561
     24 C          -7.2960    5.0422    6.1129 C.ar    1  UNL1       -0.0614
     25 C          -7.7211    6.2482    5.5879 C.ar    1  UNL1       -0.0617
     26 C          -6.9347    6.9176    4.6690 C.ar    1  UNL1       -0.0614
     27 C          -5.7215    6.3829    4.2780 C.ar    1  UNL1       -0.0561
     28 C          -3.0846    1.8209    2.0254 C.3     1  UNL1        0.0135
     29 C          -1.7128    1.2258    1.7117 C.3     1  UNL1        0.0333
     30 H          -2.1312    0.3380   -1.7455 H       1  UNL1        0.0637
     31 H          -3.6922    0.8876   -3.5688 H       1  UNL1        0.0624
     32 H          -2.1266    4.8521   -3.7142 H       1  UNL1        0.0624
     33 H          -0.5683    4.3037   -1.8882 H       1  UNL1        0.0637
     34 H          -0.2178    3.5166    2.5501 H       1  UNL1        0.0456
     35 H          -0.3123    4.2595    0.9315 H       1  UNL1        0.0456
     36 H          -2.1477    5.0207    2.4930 H       1  UNL1        0.0440
     37 H          -2.7552    4.2402    1.0125 H       1  UNL1        0.0440
     38 H          -4.7141    4.1051    2.4032 H       1  UNL1        0.0455
     39 H          -4.8233    2.7723    3.5779 H       1  UNL1        0.0455
     40 H          -3.9089    3.1839    5.8260 H       1  UNL1        0.2103
     41 H          -5.7526    3.5630    6.1288 H       1  UNL1        0.0621
     42 H          -7.9104    4.5192    6.8308 H       1  UNL1        0.0618
     43 H          -8.6678    6.6674    5.8954 H       1  UNL1        0.0618
     44 H          -7.2670    7.8597    4.2586 H       1  UNL1        0.0618
     45 H          -5.1070    6.9058    3.5601 H       1  UNL1        0.0621
     46 H          -3.6557    1.1204    2.6348 H       1  UNL1        0.0440
     47 H          -3.6171    2.0110    1.0935 H       1  UNL1        0.0440
     48 H          -1.8305    0.3522    1.0706 H       1  UNL1        0.0456
     49 H          -1.2175    0.9386    2.6393 H       1  UNL1        0.0456
@<TRIPOS>BOND
     1     1     2    2
     2     2     3    2
     3     2     4    1
     4     2    14    1
     5     4    13   ar
     6     4     5   ar
     7     5     6   ar
     8     5    30    1
     9     6     7   ar
    10     6    31    1
    11     7     8    1
    12     7    12   ar
    13     8     9    1
    14     8    10    1
    15     8    11    1
    16    12    13   ar
    17    12    32    1
    18    13    33    1
    19    14    29    1
    20    14    15    1
    21    15    16    1
    22    15    34    1
    23    15    35    1
    24    16    17    1
    25    16    36    1
    26    16    37    1
    27    17    18    1
    28    17    28    1
    29    18    19    1
    30    18    38    1
    31    18    39    1
    32    19    20    1
    33    19    21    1
    34    19    22    1
    35    21    40    1
    36    22    27   ar
    37    22    23   ar
    38    23    24   ar
    39    23    41    1
    40    24    25   ar
    41    24    42    1
    42    25    26   ar
    43    25    43    1
    44    26    27   ar
    45    26    44    1
    46    27    45    1
    47    28    29    1
    48    28    46    1
    49    28    47    1
    50    29    48    1
    51    29    49    1
