@<TRIPOS>MOLECULE
ZINC000026569930
 47 49 0 0 0
SMALL
GASTEIGER

@<TRIPOS>ATOM
      1 C          -0.0184    1.5028    0.0103 C.3     1  UNL1       -0.0334
      2 C           0.0021   -0.0041    0.0020 C.ar    1  UNL1       -0.0114
      3 C          -1.0773   -0.7877    0.0028 C.ar    1  UNL1       -0.0499
      4 C          -0.8118   -2.1462   -0.0063 C.ar    1  UNL1       -0.0278
      5 C           0.4832   -2.4658   -0.0145 C.ar    1  UNL1        0.1429
      6 S           1.1244   -4.1069   -0.0280 S.O2    1  UNL1        0.0678
      7 O           2.4370   -4.0293    0.5108 O.2     1  UNL1       -0.1523
      8 O           0.1090   -4.9389    0.5160 O.2     1  UNL1       -0.1523
      9 N           1.2953   -4.5534   -1.6135 N.3     1  UNL1       -0.1643
     10 C           0.2660   -5.2153   -2.4355 C.3     1  UNL1        0.0214
     11 C           0.6359   -4.8590   -3.8969 C.3     1  UNL1       -0.0366
     12 C           2.1861   -4.8992   -3.8445 C.3     1  UNL1       -0.0260
     13 C           2.4966   -4.3496   -2.4363 C.3     1  UNL1        0.1078
     14 H           2.7346   -3.2877   -2.4970 H       1  UNL1        0.0575
     15 C           3.6572   -5.1013   -1.8372 C.2     1  UNL1        0.2322
     16 O           3.5063   -5.7342   -0.8137 O.2     1  UNL1       -0.2740
     17 N           4.8628   -5.0702   -2.4388 N.am    1  UNL1       -0.3099
     18 C           5.9911   -5.8010   -1.8564 C.3     1  UNL1        0.0369
     19 C           7.2139   -5.6046   -2.7151 C.ar    1  UNL1       -0.0303
     20 C           7.4765   -6.4780   -3.7538 C.ar    1  UNL1       -0.0565
     21 C           8.5981   -6.2979   -4.5415 C.ar    1  UNL1       -0.0498
     22 C           9.4568   -5.2440   -4.2908 C.ar    1  UNL1        0.0548
     23 C          10.6798   -5.0478   -5.1492 C.3     1  UNL1        0.4174
     24 F          10.3609   -4.2240   -6.2340 F       1  UNL1       -0.1659
     25 F          11.6910   -4.4490   -4.3903 F       1  UNL1       -0.1659
     26 F          11.1228   -6.2885   -5.6202 F       1  UNL1       -0.1659
     27 C           9.1934   -4.3697   -3.2529 C.ar    1  UNL1       -0.0498
     28 C           8.0698   -4.5477   -2.4676 C.ar    1  UNL1       -0.0565
     29 S           1.4528   -0.9983   -0.0178 S.2     1  UNL1       -0.0738
     30 H           1.0042    1.8801    0.0026 H       1  UNL1        0.0283
     31 H          -0.5455    1.8639   -0.8728 H       1  UNL1        0.0283
     32 H          -0.5286    1.8543    0.9071 H       1  UNL1        0.0283
     33 H          -2.0823   -0.3923    0.0103 H       1  UNL1        0.0626
     34 H          -1.5939   -2.8910   -0.0065 H       1  UNL1        0.0643
     35 H           0.2991   -6.2948   -2.2881 H       1  UNL1        0.0444
     36 H          -0.7228   -4.8282   -2.1893 H       1  UNL1        0.0444
     37 H           0.2490   -5.6051   -4.5909 H       1  UNL1        0.0279
     38 H           0.2796   -3.8626   -4.1583 H       1  UNL1        0.0279
     39 H           2.5492   -5.9213   -3.9522 H       1  UNL1        0.0286
     40 H           2.6148   -4.2536   -4.6110 H       1  UNL1        0.0286
     41 H           4.9835   -4.5641   -3.2574 H       1  UNL1        0.1491
     42 H           6.1881   -5.4251   -0.8524 H       1  UNL1        0.0512
     43 H           5.7493   -6.8626   -1.8059 H       1  UNL1        0.0512
     44 H           6.8056   -7.3014   -3.9497 H       1  UNL1        0.0621
     45 H           8.8037   -6.9807   -5.3526 H       1  UNL1        0.0623
     46 H           9.8641   -3.5461   -3.0572 H       1  UNL1        0.0623
     47 H           7.8640   -3.8646   -1.6567 H       1  UNL1        0.0621
@<TRIPOS>BOND
     1     1     2    1
     2     1    30    1
     3     1    31    1
     4     1    32    1
     5     2    29   ar
     6     2     3   ar
     7     3     4   ar
     8     3    33    1
     9     4     5   ar
    10     4    34    1
    11     5     6    1
    12     5    29   ar
    13     6     7    2
    14     6     8    2
    15     6     9    1
    16     9    13    1
    17     9    10    1
    18    10    11    1
    19    10    35    1
    20    10    36    1
    21    11    12    1
    22    11    37    1
    23    11    38    1
    24    12    13    1
    25    12    39    1
    26    12    40    1
    27    13    14    1
    28    13    15    1
    29    15    16    2
    30    15    17   am
    31    17    18    1
    32    17    41    1
    33    18    19    1
    34    18    42    1
    35    18    43    1
    36    19    28   ar
    37    19    20   ar
    38    20    21   ar
    39    20    44    1
    40    21    22   ar
    41    21    45    1
    42    22    23    1
    43    22    27   ar
    44    23    24    1
    45    23    25    1
    46    23    26    1
    47    27    28   ar
    48    27    46    1
    49    28    47    1
