@<TRIPOS>MOLECULE
ZINC000007794231
 44 46 0 0 0
SMALL
GASTEIGER

@<TRIPOS>ATOM
      1 O           0.0021   -0.0041    0.0020 O.2     1  UNL1       -0.2753
      2 C          -0.0144    1.2086    0.0087 C.2     1  UNL1        0.2187
      3 C           1.2803    1.9798    0.0005 C.3     1  UNL1        0.0358
      4 C           1.7288    2.4455    1.3958 C.3     1  UNL1       -0.0419
      5 C           2.4677    1.1026    1.5201 C.3     1  UNL1       -0.0517
      6 C           2.5305    1.0845   -0.0163 C.3     1  UNL1       -0.0419
      7 N          -1.1906    1.8666    0.0178 N.am    1  UNL1       -0.2987
      8 C          -1.2258    3.3358    0.0198 C.3     1  UNL1        0.0291
      9 C          -2.0742    3.8073   -1.1677 C.3     1  UNL1        0.0363
     10 N          -3.3445    3.0683   -1.1600 N.3     1  UNL1       -0.1736
     11 S          -4.7897    3.8768   -1.1499 S.O2    1  UNL1        0.0609
     12 O          -5.7465    2.9815   -0.6000 O.2     1  UNL1       -0.1528
     13 O          -4.5263    5.1629   -0.6061 O.2     1  UNL1       -0.1528
     14 C          -5.2559    4.1328   -2.8297 C.ar    1  UNL1        0.1055
     15 C          -4.8496    5.2754   -3.4933 C.ar    1  UNL1       -0.0348
     16 C          -5.2154    5.4763   -4.8111 C.ar    1  UNL1       -0.0483
     17 C          -5.9870    4.5344   -5.4656 C.ar    1  UNL1        0.0549
     18 C          -6.3861    4.7536   -6.9021 C.3     1  UNL1        0.4174
     19 F          -5.4155    4.2020   -7.7452 F       1  UNL1       -0.1659
     20 F          -7.6183    4.1366   -7.1432 F       1  UNL1       -0.1659
     21 F          -6.4951    6.1259   -7.1516 F       1  UNL1       -0.1659
     22 C          -6.3922    3.3912   -4.8024 C.ar    1  UNL1       -0.0483
     23 C          -6.0232    3.1885   -3.4857 C.ar    1  UNL1       -0.0348
     24 C          -3.3093    1.5991   -1.1620 C.3     1  UNL1        0.0363
     25 C          -2.4610    1.1276    0.0199 C.3     1  UNL1        0.0291
     26 H           1.2982    2.7688   -0.7513 H       1  UNL1        0.0394
     27 H           2.3934    3.3092    1.3751 H       1  UNL1        0.0272
     28 H           0.9074    2.5590    2.1032 H       1  UNL1        0.0272
     29 H           3.4449    1.1843    1.9961 H       1  UNL1        0.0266
     30 H           1.8559    0.3050    1.9415 H       1  UNL1        0.0266
     31 H           2.3563    0.0993   -0.4488 H       1  UNL1        0.0272
     32 H           3.4143    1.5762   -0.4230 H       1  UNL1        0.0272
     33 H          -1.6699    3.6898    0.9501 H       1  UNL1        0.0478
     34 H          -0.2126    3.7261   -0.0765 H       1  UNL1        0.0478
     35 H          -2.2716    4.8752   -1.0751 H       1  UNL1        0.0459
     36 H          -1.5421    3.6105   -2.0984 H       1  UNL1        0.0459
     37 H          -4.2468    6.0113   -2.9820 H       1  UNL1        0.0637
     38 H          -4.8985    6.3693   -5.3294 H       1  UNL1        0.0624
     39 H          -6.9947    2.6551   -5.3138 H       1  UNL1        0.0624
     40 H          -6.3397    2.2953   -2.9676 H       1  UNL1        0.0637
     41 H          -4.3225    1.2088   -1.0656 H       1  UNL1        0.0459
     42 H          -2.8652    1.2451   -2.0923 H       1  UNL1        0.0459
     43 H          -2.2643    0.0596   -0.0740 H       1  UNL1        0.0478
     44 H          -2.9908    1.3241    0.9519 H       1  UNL1        0.0478
@<TRIPOS>BOND
     1     1     2    2
     2     2     3    1
     3     2     7   am
     4     3     6    1
     5     3     4    1
     6     3    26    1
     7     4     5    1
     8     4    27    1
     9     4    28    1
    10     5     6    1
    11     5    29    1
    12     5    30    1
    13     6    31    1
    14     6    32    1
    15     7    25    1
    16     7     8    1
    17     8     9    1
    18     8    33    1
    19     8    34    1
    20     9    10    1
    21     9    35    1
    22     9    36    1
    23    11    10    1
    24    10    24    1
    25    11    12    2
    26    11    13    2
    27    11    14    1
    28    14    23   ar
    29    14    15   ar
    30    15    16   ar
    31    15    37    1
    32    16    17   ar
    33    16    38    1
    34    17    18    1
    35    17    22   ar
    36    18    19    1
    37    18    20    1
    38    18    21    1
    39    22    23   ar
    40    22    39    1
    41    23    40    1
    42    24    25    1
    43    24    41    1
    44    24    42    1
    45    25    43    1
    46    25    44    1
