@<TRIPOS>MOLECULE
ZINC000000924342
 54 56 0 0 0
SMALL
GASTEIGER

@<TRIPOS>ATOM
      1 C           0.3687    0.9013    0.0859 C.3     1  UNL1        0.0790
      2 O           0.2420   -0.5060   -0.1270 O.3     1  UNL1       -0.4915
      3 C          -1.0148   -1.0247   -0.0945 C.ar    1  UNL1        0.1615
      4 C          -2.1019   -0.1965    0.1316 C.ar    1  UNL1       -0.0160
      5 C          -3.3792   -0.7254    0.1639 C.ar    1  UNL1       -0.0536
      6 C          -3.5745   -2.0801   -0.0284 C.ar    1  UNL1       -0.0280
      7 C          -4.9686   -2.6513    0.0084 C.3     1  UNL1        0.0457
      8 N          -5.4888   -2.7580   -1.3570 N.3     1  UNL1       -0.1698
      9 C          -5.1773   -3.9366   -2.1695 C.3     1  UNL1        0.0471
     10 C          -6.1789   -5.0503   -1.8577 C.3     1  UNL1        0.0731
     11 H          -7.1941   -4.7159   -2.0714 H       1  UNL1        0.0609
     12 C          -5.8460   -6.3194   -2.6818 C.3     1  UNL1       -0.0233
     13 C          -6.4848   -7.4228   -1.7950 C.3     1  UNL1       -0.0271
     14 C          -6.2631   -6.8681   -0.3714 C.3     1  UNL1        0.0482
     15 O          -6.0654   -5.4525   -0.4833 O.3     1  UNL1       -0.3752
     16 S          -6.4288   -1.5464   -1.9820 S.O2    1  UNL1        0.0612
     17 O          -7.2812   -2.1548   -2.9425 O.2     1  UNL1       -0.1528
     18 O          -6.9141   -0.8024   -0.8728 O.2     1  UNL1       -0.1528
     19 C          -5.3616   -0.4669   -2.8766 C.ar    1  UNL1        0.1055
     20 C          -4.8605    0.6686   -2.2647 C.ar    1  UNL1       -0.0346
     21 C          -4.0246    1.5181   -2.9588 C.ar    1  UNL1       -0.0458
     22 C          -3.6840    1.2299   -4.2828 C.ar    1  UNL1        0.0633
     23 C          -2.7900    2.1336   -5.0318 C.2     1  UNL1        0.3865
     24 O          -2.3451    3.1377   -4.4938 O.co2   1  UNL1       -0.2406
     25 O          -2.4938    1.8785   -6.1905 O.co2   1  UNL1       -0.2406
     26 C          -4.1938    0.0816   -4.8941 C.ar    1  UNL1       -0.0458
     27 C          -5.0241   -0.7617   -4.1859 C.ar    1  UNL1       -0.0346
     28 C          -2.4937   -2.9124   -0.2550 C.ar    1  UNL1       -0.0118
     29 C          -1.2120   -2.3881   -0.2939 C.ar    1  UNL1        0.1618
     30 O          -0.1480   -3.2052   -0.5166 O.3     1  UNL1       -0.4914
     31 C          -0.4248   -4.5948   -0.7022 C.3     1  UNL1        0.0790
     32 H           1.4203    1.1834    0.0343 H       1  UNL1        0.0660
     33 H          -0.1892    1.4367   -0.6825 H       1  UNL1        0.0660
     34 H          -0.0285    1.1574    1.0681 H       1  UNL1        0.0660
     35 H          -1.9519    0.8623    0.2829 H       1  UNL1        0.0655
     36 H          -4.2259   -0.0786    0.3402 H       1  UNL1        0.0622
     37 H          -4.9440   -3.6402    0.4661 H       1  UNL1        0.0493
     38 H          -5.6144   -1.9962    0.5930 H       1  UNL1        0.0493
     39 H          -5.2405   -3.6765   -3.2262 H       1  UNL1        0.0469
     40 H          -4.1687   -4.2802   -1.9396 H       1  UNL1        0.0469
     41 H          -6.3161   -6.2842   -3.6646 H       1  UNL1        0.0291
     42 H          -4.7685   -6.4600   -2.7686 H       1  UNL1        0.0291
     43 H          -7.5484   -7.5258   -2.0099 H       1  UNL1        0.0288
     44 H          -5.9676   -8.3734   -1.9258 H       1  UNL1        0.0288
     45 H          -7.1392   -7.0702    0.2448 H       1  UNL1        0.0560
     46 H          -5.3822   -7.3315    0.0730 H       1  UNL1        0.0560
     47 H          -5.1248    0.8903   -1.2413 H       1  UNL1        0.0637
     48 H          -3.6344    2.4042   -2.4801 H       1  UNL1        0.0626
     49 H          -3.9351   -0.1472   -5.9174 H       1  UNL1        0.0626
     50 H          -5.4189   -1.6497   -4.6571 H       1  UNL1        0.0637
     51 H          -2.6490   -3.9705   -0.4050 H       1  UNL1        0.0658
     52 H          -1.0782   -4.7230   -1.5652 H       1  UNL1        0.0660
     53 H           0.5087   -5.1319   -0.8703 H       1  UNL1        0.0660
     54 H          -0.9160   -4.9894    0.1872 H       1  UNL1        0.0660
@<TRIPOS>BOND
     1     1     2    1
     2     1    32    1
     3     1    33    1
     4     1    34    1
     5     2     3    1
     6     3    29   ar
     7     3     4   ar
     8     4     5   ar
     9     4    35    1
    10     5     6   ar
    11     5    36    1
    12     6     7    1
    13     6    28   ar
    14     7     8    1
    15     7    37    1
    16     7    38    1
    17     8     9    1
    18    16     8    1
    19     9    10    1
    20     9    39    1
    21     9    40    1
    22    10    11    1
    23    10    15    1
    24    10    12    1
    25    12    13    1
    26    12    41    1
    27    12    42    1
    28    13    14    1
    29    13    43    1
    30    13    44    1
    31    14    15    1
    32    14    45    1
    33    14    46    1
    34    16    17    2
    35    16    18    2
    36    16    19    1
    37    19    27   ar
    38    19    20   ar
    39    20    21   ar
    40    20    47    1
    41    21    22   ar
    42    21    48    1
    43    22    23    1
    44    22    26   ar
    45    23    24   ar
    46    23    25   ar
    47    26    27   ar
    48    26    49    1
    49    27    50    1
    50    28    29   ar
    51    28    51    1
    52    29    30    1
    53    30    31    1
    54    31    52    1
    55    31    53    1
    56    31    54    1
