@<TRIPOS>MOLECULE
ZINC000003414129
 43 44 0 0 0
SMALL
GASTEIGER

@<TRIPOS>ATOM
      1 N          -0.0162    1.3436    0.0094 N.am    1  UNL1       -0.3134
      2 C           0.0021   -0.0041    0.0020 C.2     1  UNL1        0.2974
      3 O           1.0631   -0.5976   -0.0113 O.2     1  UNL1       -0.2531
      4 N          -1.1558   -0.6938    0.0094 N.am    1  UNL1       -0.2910
      5 C          -1.1360   -2.1586    0.0013 C.3     1  UNL1        0.0898
      6 C          -2.5498   -2.6802    0.0120 C.2     1  UNL1        0.2329
      7 O          -3.4822   -1.9047    0.0251 O.2     1  UNL1       -0.2739
      8 N          -2.7780   -4.0085    0.0071 N.am    1  UNL1       -0.2976
      9 C          -1.6579   -4.9599   -0.0026 C.3     1  UNL1        0.0292
     10 C          -1.8151   -5.9140    1.1880 C.3     1  UNL1        0.0363
     11 N          -3.1885   -6.4369    1.1926 N.3     1  UNL1       -0.1736
     12 S          -3.4690   -8.0690    1.1876 S.O2    1  UNL1        0.0623
     13 O          -4.7712   -8.2507    0.6488 O.2     1  UNL1       -0.1528
     14 O          -2.3079   -8.6740    0.6352 O.2     1  UNL1       -0.1528
     15 C          -3.5491   -8.5895    2.8691 C.ar    1  UNL1        0.1242
     16 C          -4.7305   -9.0908    3.3818 C.ar    1  UNL1       -0.0223
     17 C          -4.7936   -9.4993    4.7012 C.ar    1  UNL1        0.0567
     18 C          -6.0821  -10.0459    5.2596 C.3     1  UNL1        0.4175
     19 F          -6.1205  -11.4319    5.0729 F       1  UNL1       -0.1659
     20 F          -6.1576   -9.7572    6.6264 F       1  UNL1       -0.1659
     21 F          -7.1645   -9.4561    4.5980 F       1  UNL1       -0.1659
     22 C          -3.6751   -9.4070    5.5080 C.ar    1  UNL1       -0.0486
     23 C          -2.4928   -8.9057    4.9963 C.ar    1  UNL1       -0.0410
     24 C          -2.4277   -8.5018    3.6749 C.ar    1  UNL1        0.0673
     25 CL         -0.9433   -7.8721    3.0315 Cl      1  UNL1       -0.0815
     26 C          -4.3086   -5.4855    1.2022 C.3     1  UNL1        0.0363
     27 C          -4.1515   -4.5315    0.0174 C.3     1  UNL1        0.0292
     28 H           0.8172    1.8399    0.0041 H       1  UNL1        0.1465
     29 H          -0.8627    1.8171    0.0160 H       1  UNL1        0.1465
     30 H          -2.0023   -0.2203    0.0200 H       1  UNL1        0.1507
     31 H          -0.6258   -2.5101   -0.8955 H       1  UNL1        0.0558
     32 H          -0.6088   -2.5197    0.8844 H       1  UNL1        0.0558
     33 H          -1.6697   -5.5295   -0.9318 H       1  UNL1        0.0478
     34 H          -0.7165   -4.4175    0.0850 H       1  UNL1        0.0478
     35 H          -1.1097   -6.7393    1.0909 H       1  UNL1        0.0459
     36 H          -1.6257   -5.3749    2.1162 H       1  UNL1        0.0459
     37 H          -5.6047   -9.1632    2.7518 H       1  UNL1        0.0643
     38 H          -3.7250   -9.7262    6.5385 H       1  UNL1        0.0623
     39 H          -1.6190   -8.8336    5.6268 H       1  UNL1        0.0633
     40 H          -5.2500   -6.0279    1.1146 H       1  UNL1        0.0459
     41 H          -4.2968   -4.9159    2.1315 H       1  UNL1        0.0459
     42 H          -4.8573   -3.7067    0.1156 H       1  UNL1        0.0478
     43 H          -4.3397   -5.0686   -0.9122 H       1  UNL1        0.0478
@<TRIPOS>BOND
     1     1     2   am
     2     1    28    1
     3     1    29    1
     4     2     3    2
     5     2     4   am
     6     4     5    1
     7     4    30    1
     8     5     6    1
     9     5    31    1
    10     5    32    1
    11     6     7    2
    12     6     8   am
    13     8    27    1
    14     8     9    1
    15     9    10    1
    16     9    33    1
    17     9    34    1
    18    10    11    1
    19    10    35    1
    20    10    36    1
    21    12    11    1
    22    11    26    1
    23    12    13    2
    24    12    14    2
    25    12    15    1
    26    15    24   ar
    27    15    16   ar
    28    16    17   ar
    29    16    37    1
    30    17    18    1
    31    17    22   ar
    32    18    19    1
    33    18    20    1
    34    18    21    1
    35    22    23   ar
    36    22    38    1
    37    23    24   ar
    38    23    39    1
    39    24    25    1
    40    26    27    1
    41    26    40    1
    42    26    41    1
    43    27    42    1
    44    27    43    1
