@<TRIPOS>MOLECULE
ZINC000000166219
 32 33 0 0 0
SMALL
GASTEIGER

@<TRIPOS>ATOM
      1 O           0.0021   -0.0041    0.0020 O.co2   1  UNL1       -0.2445
      2 C          -0.0145    1.2150    0.0087 C.2     1  UNL1        0.3745
      3 O           1.0330    1.8389    0.0021 O.co2   1  UNL1       -0.2445
      4 C          -1.3296    1.9507    0.0190 C.3     1  UNL1        0.1328
      5 H          -1.2142    2.9090    0.5253 H       1  UNL1        0.0597
      6 C          -1.8158    2.1769   -1.4281 C.3     1  UNL1       -0.0240
      7 C          -3.3483    1.9609   -1.3176 C.3     1  UNL1       -0.0365
      8 C          -3.4280    0.8346   -0.2571 C.3     1  UNL1        0.0215
      9 N          -2.3492    1.1428    0.7041 N.3     1  UNL1       -0.1627
     10 S          -2.2975    0.6553    2.2859 S.O2    1  UNL1        0.0616
     11 O          -1.4514    1.5753    2.9619 O.2     1  UNL1       -0.1528
     12 O          -3.6419    0.4067    2.6733 O.2     1  UNL1       -0.1528
     13 C          -1.4725   -0.9011    2.3253 C.ar    1  UNL1        0.1060
     14 C          -2.1973   -2.0709    2.1969 C.ar    1  UNL1       -0.0353
     15 C          -1.5499   -3.2921    2.2279 C.ar    1  UNL1       -0.0594
     16 C          -0.1778   -3.3431    2.3868 C.ar    1  UNL1       -0.0500
     17 C           0.5473   -2.1729    2.5143 C.ar    1  UNL1        0.0567
     18 C           2.0432   -2.2286    2.6880 C.3     1  UNL1        0.4175
     19 F           2.4632   -3.5630    2.6891 F       1  UNL1       -0.1659
     20 F           2.6607   -1.5462    1.6344 F       1  UNL1       -0.1659
     21 F           2.3944   -1.6282    3.9019 F       1  UNL1       -0.1659
     22 C          -0.0994   -0.9519    2.4791 C.ar    1  UNL1       -0.0237
     23 H          -1.5920    3.1920   -1.7559 H       1  UNL1        0.0287
     24 H          -1.3710    1.4457   -2.1031 H       1  UNL1        0.0287
     25 H          -3.8458    2.8647   -0.9659 H       1  UNL1        0.0279
     26 H          -3.7661    1.6320   -2.2691 H       1  UNL1        0.0279
     27 H          -4.3963    0.8522    0.2430 H       1  UNL1        0.0444
     28 H          -3.2577   -0.1366   -0.7217 H       1  UNL1        0.0444
     29 H          -3.2694   -2.0310    2.0728 H       1  UNL1        0.0637
     30 H          -2.1163   -4.2062    2.1282 H       1  UNL1        0.0618
     31 H           0.3278   -4.2972    2.4117 H       1  UNL1        0.0623
     32 H           0.4670   -0.0378    2.5787 H       1  UNL1        0.0642
@<TRIPOS>BOND
     1     1     2   ar
     2     2     3   ar
     3     2     4    1
     4     4     5    1
     5     4     9    1
     6     4     6    1
     7     6     7    1
     8     6    23    1
     9     6    24    1
    10     7     8    1
    11     7    25    1
    12     7    26    1
    13     8     9    1
    14     8    27    1
    15     8    28    1
    16    10     9    1
    17    10    11    2
    18    10    12    2
    19    10    13    1
    20    13    22   ar
    21    13    14   ar
    22    14    15   ar
    23    14    29    1
    24    15    16   ar
    25    15    30    1
    26    16    17   ar
    27    16    31    1
    28    17    18    1
    29    17    22   ar
    30    18    19    1
    31    18    20    1
    32    18    21    1
    33    22    32    1
