@<TRIPOS>MOLECULE
ZINC000028207788
 55 55 0 0 0
SMALL
GASTEIGER

@<TRIPOS>ATOM
      1 C          -0.0187    1.5258    0.0104 C.3     1  UNL1       -0.0652
      2 C           0.0021   -0.0041    0.0020 C.3     1  UNL1       -0.0542
      3 C           0.7182   -0.4975   -1.2568 C.3     1  UNL1       -0.0350
      4 C           0.7390   -2.0273   -1.2652 C.3     1  UNL1        0.0204
      5 H          -0.2789   -2.4050   -1.1679 H       1  UNL1        0.0495
      6 C           1.3429   -2.5219   -2.5810 C.3     1  UNL1       -0.0466
      7 N           1.5485   -2.5109   -0.1440 N.am    1  UNL1       -0.3099
      8 C           1.3281   -3.7388    0.3660 C.2     1  UNL1        0.2509
      9 O           0.4596   -4.4434   -0.1031 O.2     1  UNL1       -0.2721
     10 C           2.1609   -4.2362    1.5193 C.3     1  UNL1        0.1652
     11 O           1.7399   -5.5540    1.8774 O.3     1  UNL1       -0.4825
     12 C           2.3939   -6.1521    2.9076 C.ar    1  UNL1        0.1242
     13 C           3.4159   -5.4823    3.5641 C.ar    1  UNL1       -0.0178
     14 C           4.0790   -6.0924    4.6115 C.ar    1  UNL1       -0.0319
     15 C           3.7251   -7.3695    5.0051 C.ar    1  UNL1        0.1060
     16 S           4.5731   -8.1449    6.3408 S.O2    1  UNL1        0.0608
     17 O           4.4118   -9.5451    6.1597 O.2     1  UNL1       -0.1528
     18 O           5.8432   -7.5140    6.4300 O.2     1  UNL1       -0.1528
     19 N           3.7593   -7.7563    7.7297 N.3     1  UNL1       -0.1771
     20 C           2.6727   -8.6153    8.2068 C.3     1  UNL1        0.0177
     21 C           3.2199   -9.6044    9.2380 C.3     1  UNL1       -0.0507
     22 C           4.1259   -6.5534    8.4813 C.3     1  UNL1        0.0177
     23 C           3.2211   -5.3936    8.0605 C.3     1  UNL1       -0.0507
     24 C           2.7063   -8.0392    4.3524 C.ar    1  UNL1       -0.0290
     25 C           2.0368   -7.4317    3.3082 C.ar    1  UNL1       -0.0069
     26 C           0.9264   -8.1619    2.5978 C.3     1  UNL1       -0.0362
     27 H           1.0039    1.9031    0.0027 H       1  UNL1        0.0230
     28 H          -0.5459    1.8868   -0.8726 H       1  UNL1        0.0230
     29 H          -0.5289    1.8773    0.9072 H       1  UNL1        0.0230
     30 H           0.5293   -0.3651    0.8851 H       1  UNL1        0.0263
     31 H          -1.0205   -0.3814    0.0098 H       1  UNL1        0.0263
     32 H           0.1910   -0.1364   -2.1398 H       1  UNL1        0.0283
     33 H           1.7408   -0.1202   -1.2645 H       1  UNL1        0.0283
     34 H           1.3577   -3.6118   -2.5870 H       1  UNL1        0.0247
     35 H           0.7406   -2.1622   -3.4152 H       1  UNL1        0.0247
     36 H           2.3608   -2.1442   -2.6783 H       1  UNL1        0.0247
     37 H           2.2431   -1.9473    0.2312 H       1  UNL1        0.1491
     38 H           3.2108   -4.2570    1.2271 H       1  UNL1        0.0795
     39 H           2.0345   -3.5700    2.3727 H       1  UNL1        0.0795
     40 H           3.6932   -4.4848    3.2566 H       1  UNL1        0.0655
     41 H           4.8747   -5.5712    5.1230 H       1  UNL1        0.0638
     42 H           1.8993   -8.0008    8.6675 H       1  UNL1        0.0441
     43 H           2.2480   -9.1644    7.3664 H       1  UNL1        0.0441
     44 H           2.4114  -10.2435    9.5930 H       1  UNL1        0.0243
     45 H           3.9933  -10.2189    8.7773 H       1  UNL1        0.0243
     46 H           3.6446   -9.0553   10.0783 H       1  UNL1        0.0243
     47 H           4.0043   -6.7405    9.5482 H       1  UNL1        0.0441
     48 H           5.1649   -6.2976    8.2734 H       1  UNL1        0.0441
     49 H           3.3428   -5.2065    6.9935 H       1  UNL1        0.0243
     50 H           2.1822   -5.6493    8.2684 H       1  UNL1        0.0243
     51 H           3.4939   -4.4986    8.6197 H       1  UNL1        0.0243
     52 H           2.4314   -9.0367    4.6620 H       1  UNL1        0.0641
     53 H          -0.0223   -7.9480    3.0900 H       1  UNL1        0.0279
     54 H           0.8799   -7.8316    1.5601 H       1  UNL1        0.0279
     55 H           1.1183   -9.2344    2.6294 H       1  UNL1        0.0279
@<TRIPOS>BOND
     1     1     2    1
     2     1    27    1
     3     1    28    1
     4     1    29    1
     5     2     3    1
     6     2    30    1
     7     2    31    1
     8     3     4    1
     9     3    32    1
    10     3    33    1
    11     4     5    1
    12     4     6    1
    13     4     7    1
    14     6    34    1
    15     6    35    1
    16     6    36    1
    17     7     8   am
    18     7    37    1
    19     8     9    2
    20     8    10    1
    21    10    11    1
    22    10    38    1
    23    10    39    1
    24    11    12    1
    25    12    25   ar
    26    12    13   ar
    27    13    14   ar
    28    13    40    1
    29    14    15   ar
    30    14    41    1
    31    15    16    1
    32    15    24   ar
    33    16    17    2
    34    16    18    2
    35    16    19    1
    36    19    20    1
    37    19    22    1
    38    20    21    1
    39    20    42    1
    40    20    43    1
    41    21    44    1
    42    21    45    1
    43    21    46    1
    44    22    23    1
    45    22    47    1
    46    22    48    1
    47    23    49    1
    48    23    50    1
    49    23    51    1
    50    24    25   ar
    51    24    52    1
    52    25    26    1
    53    26    53    1
    54    26    54    1
    55    26    55    1
