@<TRIPOS>MOLECULE
ZINC000039986572
 59 60 0 0 0
SMALL
GASTEIGER

@<TRIPOS>ATOM
      1 C          -0.0187    1.5258    0.0104 C.3     1  UNL1       -0.0307
      2 C           0.0021   -0.0041    0.0020 C.3     1  UNL1        0.0868
      3 O           0.6709   -0.4649   -1.1737 O.3     1  UNL1       -0.4908
      4 C           0.7768   -1.8103   -1.3362 C.ar    1  UNL1        0.1388
      5 C           0.2430   -2.6686   -0.3869 C.ar    1  UNL1       -0.0166
      6 C           0.3514   -4.0361   -0.5545 C.ar    1  UNL1       -0.0318
      7 C           0.9917   -4.5491   -1.6670 C.ar    1  UNL1        0.1071
      8 S           1.1278   -6.2933   -1.8770 S.O2    1  UNL1        0.0613
      9 O           2.2440   -6.5089   -2.7296 O.2     1  UNL1       -0.1528
     10 O           1.0191   -6.8633   -0.5799 O.2     1  UNL1       -0.1528
     11 N          -0.2077   -6.7912   -2.7201 N.3     1  UNL1       -0.1681
     12 C          -0.1767   -6.8316   -4.1842 C.3     1  UNL1        0.0182
     13 C           0.1909   -8.2425   -4.6478 C.3     1  UNL1       -0.0507
     14 C          -1.4202   -7.1914   -2.0018 C.3     1  UNL1        0.0968
     15 C          -2.3603   -6.0172   -1.9100 C.2     1  UNL1        0.2290
     16 O          -2.0483   -4.9511   -2.3967 O.2     1  UNL1       -0.2743
     17 N          -3.5479   -6.1519   -1.2871 N.am    1  UNL1       -0.3116
     18 C          -4.4618   -5.0104   -1.1979 C.3     1  UNL1        0.0206
     19 H          -3.8860   -4.0917   -1.0857 H       1  UNL1        0.0495
     20 C          -5.3050   -4.9313   -2.4721 C.3     1  UNL1       -0.0466
     21 C          -5.3815   -5.1867    0.0121 C.3     1  UNL1       -0.0308
     22 C          -4.5501   -5.1408    1.2956 C.3     1  UNL1       -0.0260
     23 C          -5.4559   -5.3145    2.4874 C.ar    1  UNL1       -0.0473
     24 C          -6.0288   -4.2086    3.0871 C.ar    1  UNL1       -0.0586
     25 C          -6.8597   -4.3680    4.1803 C.ar    1  UNL1       -0.0615
     26 C          -7.1181   -5.6332    4.6735 C.ar    1  UNL1       -0.0617
     27 C          -6.5460   -6.7392    4.0732 C.ar    1  UNL1       -0.0615
     28 C          -5.7185   -6.5802    2.9774 C.ar    1  UNL1       -0.0586
     29 C           1.5252   -3.6960   -2.6156 C.ar    1  UNL1       -0.0134
     30 C           1.4146   -2.3276   -2.4559 C.ar    1  UNL1        0.0844
     31 CL          2.0844   -1.2567   -3.6468 Cl      1  UNL1       -0.0797
     32 H           1.0039    1.9031    0.0027 H       1  UNL1        0.0262
     33 H          -0.5459    1.8868   -0.8726 H       1  UNL1        0.0262
     34 H          -0.5289    1.8773    0.9072 H       1  UNL1        0.0262
     35 H           0.5293   -0.3651    0.8851 H       1  UNL1        0.0694
     36 H          -1.0205   -0.3814    0.0098 H       1  UNL1        0.0694
     37 H          -0.2569   -2.2688    0.4829 H       1  UNL1        0.0655
     38 H          -0.0644   -4.7047    0.1848 H       1  UNL1        0.0638
     39 H          -1.1582   -6.5646   -4.5759 H       1  UNL1        0.0441
     40 H           0.5660   -6.1234   -4.5515 H       1  UNL1        0.0441
     41 H           1.1724   -8.5095   -4.2561 H       1  UNL1        0.0243
     42 H          -0.5519   -8.9507   -4.2805 H       1  UNL1        0.0243
     43 H           0.2139   -8.2725   -5.7372 H       1  UNL1        0.0243
     44 H          -1.9076   -8.0061   -2.5373 H       1  UNL1        0.0539
     45 H          -1.1549   -7.5238   -0.9981 H       1  UNL1        0.0539
     46 H          -3.7975   -7.0046   -0.8978 H       1  UNL1        0.1490
     47 H          -5.8809   -5.8500   -2.5843 H       1  UNL1        0.0247
     48 H          -5.9850   -4.0820   -2.4058 H       1  UNL1        0.0247
     49 H          -4.6498   -4.8057   -3.3341 H       1  UNL1        0.0247
     50 H          -6.1190   -4.3842    0.0280 H       1  UNL1        0.0286
     51 H          -5.8916   -6.1476   -0.0562 H       1  UNL1        0.0286
     52 H          -3.8126   -5.9433    1.2797 H       1  UNL1        0.0314
     53 H          -4.0400   -4.1800    1.3639 H       1  UNL1        0.0314
     54 H          -5.8269   -3.2201    2.7018 H       1  UNL1        0.0620
     55 H          -7.3067   -3.5039    4.6493 H       1  UNL1        0.0618
     56 H          -7.7668   -5.7577    5.5280 H       1  UNL1        0.0618
     57 H          -6.7476   -7.7277    4.4587 H       1  UNL1        0.0618
     58 H          -5.2715   -7.4443    2.5083 H       1  UNL1        0.0620
     59 H           2.0250   -4.0993   -3.4839 H       1  UNL1        0.0653
@<TRIPOS>BOND
     1     1     2    1
     2     1    32    1
     3     1    33    1
     4     1    34    1
     5     2     3    1
     6     2    35    1
     7     2    36    1
     8     3     4    1
     9     4    30   ar
    10     4     5   ar
    11     5     6   ar
    12     5    37    1
    13     6     7   ar
    14     6    38    1
    15     7     8    1
    16     7    29   ar
    17     8     9    2
    18     8    10    2
    19     8    11    1
    20    11    12    1
    21    11    14    1
    22    12    13    1
    23    12    39    1
    24    12    40    1
    25    13    41    1
    26    13    42    1
    27    13    43    1
    28    14    15    1
    29    14    44    1
    30    14    45    1
    31    15    16    2
    32    15    17   am
    33    17    18    1
    34    17    46    1
    35    18    19    1
    36    18    20    1
    37    18    21    1
    38    20    47    1
    39    20    48    1
    40    20    49    1
    41    21    22    1
    42    21    50    1
    43    21    51    1
    44    22    23    1
    45    22    52    1
    46    22    53    1
    47    23    28   ar
    48    23    24   ar
    49    24    25   ar
    50    24    54    1
    51    25    26   ar
    52    25    55    1
    53    26    27   ar
    54    26    56    1
    55    27    28   ar
    56    27    57    1
    57    28    58    1
    58    29    30   ar
    59    29    59    1
    60    30    31    1
