@<TRIPOS>MOLECULE
ZINC000002664493
 35 35 0 0 0
SMALL
GASTEIGER

@<TRIPOS>ATOM
      1 C          -0.0173    1.4248    0.0099 C.3     1  UNL1        0.0364
      2 O           0.0021   -0.0041    0.0020 O.3     1  UNL1       -0.3829
      3 C          -1.2953   -0.6030    0.0112 C.3     1  UNL1        0.0485
      4 C          -1.1538   -2.1264    0.0017 C.3     1  UNL1       -0.0150
      5 C          -2.5429   -2.7677    0.0115 C.3     1  UNL1        0.0232
      6 N          -2.4075   -4.2264    0.0023 N.3     1  UNL1       -0.1657
      7 C          -2.2176   -4.9523    1.2606 C.3     1  UNL1        0.1218
      8 C          -3.5592   -5.2254    1.8904 C.2     1  UNL1        0.3714
      9 O          -4.5793   -4.8485    1.3393 O.co2   1  UNL1       -0.2449
     10 O          -3.6243   -5.8231    2.9511 O.co2   1  UNL1       -0.2449
     11 S          -2.4690   -5.0547   -1.4303 S.O2    1  UNL1        0.0613
     12 O          -2.8632   -6.3818   -1.1099 O.2     1  UNL1       -0.1528
     13 O          -3.1837   -4.2299   -2.3403 O.2     1  UNL1       -0.1528
     14 C          -0.8204   -5.1597   -2.0433 C.ar    1  UNL1        0.1055
     15 C          -0.3254   -4.1673   -2.8685 C.ar    1  UNL1       -0.0353
     16 C           0.9680   -4.2497   -3.3494 C.ar    1  UNL1       -0.0599
     17 C           1.7665   -5.3242   -3.0048 C.ar    1  UNL1       -0.0616
     18 C           1.2717   -6.3161   -2.1788 C.ar    1  UNL1       -0.0599
     19 C          -0.0202   -6.2315   -1.6944 C.ar    1  UNL1       -0.0353
     20 H           1.0053    1.8021    0.0021 H       1  UNL1        0.0523
     21 H          -0.5445    1.7859   -0.8732 H       1  UNL1        0.0523
     22 H          -0.5275    1.7763    0.9067 H       1  UNL1        0.0523
     23 H          -1.8320   -0.2936    0.9080 H       1  UNL1        0.0560
     24 H          -1.8490   -0.2840   -0.8718 H       1  UNL1        0.0560
     25 H          -0.6171   -2.4359   -0.8952 H       1  UNL1        0.0300
     26 H          -0.6001   -2.4454    0.8847 H       1  UNL1        0.0300
     27 H          -3.0796   -2.4582    0.9083 H       1  UNL1        0.0445
     28 H          -3.0966   -2.4487   -0.8716 H       1  UNL1        0.0445
     29 H          -1.7103   -5.8965    1.0624 H       1  UNL1        0.0560
     30 H          -1.6132   -4.3507    1.9395 H       1  UNL1        0.0560
     31 H          -0.9492   -3.3278   -3.1378 H       1  UNL1        0.0637
     32 H           1.3546   -3.4747   -3.9947 H       1  UNL1        0.0618
     33 H           2.7767   -5.3889   -3.3811 H       1  UNL1        0.0618
     34 H           1.8954   -7.1557   -1.9098 H       1  UNL1        0.0618
     35 H          -0.4068   -7.0065   -1.0491 H       1  UNL1        0.0637
@<TRIPOS>BOND
     1     1     2    1
     2     1    20    1
     3     1    21    1
     4     1    22    1
     5     2     3    1
     6     3     4    1
     7     3    23    1
     8     3    24    1
     9     4     5    1
    10     4    25    1
    11     4    26    1
    12     5     6    1
    13     5    27    1
    14     5    28    1
    15     6     7    1
    16    11     6    1
    17     7     8    1
    18     7    29    1
    19     7    30    1
    20     8     9   ar
    21     8    10   ar
    22    11    12    2
    23    11    13    2
    24    11    14    1
    25    14    19   ar
    26    14    15   ar
    27    15    16   ar
    28    15    31    1
    29    16    17   ar
    30    16    32    1
    31    17    18   ar
    32    17    33    1
    33    18    19   ar
    34    18    34    1
    35    19    35    1
