@<TRIPOS>MOLECULE
ZINC000014135589
 55 56 0 0 0
SMALL
GASTEIGER

@<TRIPOS>ATOM
      1 C          -0.0187    1.5258    0.0104 C.3     1  UNL1       -0.0652
      2 C           0.0021   -0.0041    0.0020 C.3     1  UNL1       -0.0542
      3 C           0.7182   -0.4975   -1.2568 C.3     1  UNL1       -0.0350
      4 C           0.7390   -2.0273   -1.2652 C.3     1  UNL1        0.0203
      5 H           1.1870   -2.3897   -0.3400 H       1  UNL1        0.0495
      6 C           1.5619   -2.5197   -2.4574 C.3     1  UNL1       -0.0466
      7 N          -0.6313   -2.5337   -1.3752 N.am    1  UNL1       -0.3116
      8 C          -0.9349   -3.7625   -0.9121 C.2     1  UNL1        0.2290
      9 O          -0.0737   -4.4490   -0.4043 O.2     1  UNL1       -0.2743
     10 C          -2.3445   -4.2833   -1.0253 C.3     1  UNL1        0.0968
     11 N          -2.4146   -5.6306   -0.4541 N.3     1  UNL1       -0.1675
     12 C          -2.6151   -5.8059    0.9865 C.3     1  UNL1        0.0250
     13 C          -4.1109   -5.7525    1.3035 C.3     1  UNL1       -0.0132
     14 C          -4.3171   -5.9328    2.7854 C.ar    1  UNL1       -0.0461
     15 C          -4.4811   -7.2008    3.3111 C.ar    1  UNL1       -0.0585
     16 C          -4.6703   -7.3662    4.6704 C.ar    1  UNL1       -0.0615
     17 C          -4.6950   -6.2637    5.5040 C.ar    1  UNL1       -0.0617
     18 C          -4.5302   -4.9959    4.9784 C.ar    1  UNL1       -0.0615
     19 C          -4.3367   -4.8308    3.6196 C.ar    1  UNL1       -0.0585
     20 S          -2.2672   -6.9553   -1.4368 S.O2    1  UNL1        0.0613
     21 O          -3.0324   -7.9896   -0.8335 O.2     1  UNL1       -0.1528
     22 O          -2.4891   -6.4973   -2.7636 O.2     1  UNL1       -0.1528
     23 C          -0.5849   -7.4740   -1.3643 C.ar    1  UNL1        0.1056
     24 C           0.3363   -6.9582   -2.2567 C.ar    1  UNL1       -0.0343
     25 C           1.6562   -7.3645   -2.1999 C.ar    1  UNL1       -0.0459
     26 C           2.0554   -8.2872   -1.2498 C.ar    1  UNL1        0.0180
     27 BR          3.8611   -8.8429   -1.1711 Br      1  UNL1       -0.0503
     28 C           1.1332   -8.8030   -0.3570 C.ar    1  UNL1       -0.0459
     29 C          -0.1854   -8.3922   -0.4112 C.ar    1  UNL1       -0.0343
     30 H           1.0039    1.9031    0.0027 H       1  UNL1        0.0230
     31 H          -0.5459    1.8868   -0.8726 H       1  UNL1        0.0230
     32 H          -0.5289    1.8773    0.9072 H       1  UNL1        0.0230
     33 H           0.5293   -0.3651    0.8851 H       1  UNL1        0.0263
     34 H          -1.0205   -0.3814    0.0098 H       1  UNL1        0.0263
     35 H           0.1910   -0.1364   -2.1398 H       1  UNL1        0.0283
     36 H           1.7408   -0.1202   -1.2645 H       1  UNL1        0.0283
     37 H           1.5766   -3.6095   -2.4634 H       1  UNL1        0.0247
     38 H           1.1138   -2.1573   -3.3826 H       1  UNL1        0.0247
     39 H           2.5814   -2.1429   -2.3755 H       1  UNL1        0.0247
     40 H          -1.3201   -1.9846   -1.7814 H       1  UNL1        0.1490
     41 H          -3.0206   -3.6229   -0.4824 H       1  UNL1        0.0539
     42 H          -2.6358   -4.3182   -2.0751 H       1  UNL1        0.0539
     43 H          -2.2126   -6.7708    1.2946 H       1  UNL1        0.0447
     44 H          -2.1010   -5.0093    1.5244 H       1  UNL1        0.0447
     45 H          -4.5134   -4.7875    0.9954 H       1  UNL1        0.0326
     46 H          -4.6249   -6.5491    0.7655 H       1  UNL1        0.0326
     47 H          -4.4617   -8.0621    2.6599 H       1  UNL1        0.0620
     48 H          -4.7990   -8.3567    5.0811 H       1  UNL1        0.0618
     49 H          -4.8435   -6.3929    6.5660 H       1  UNL1        0.0618
     50 H          -4.5498   -4.1345    5.6296 H       1  UNL1        0.0618
     51 H          -4.2079   -3.8403    3.2089 H       1  UNL1        0.0620
     52 H           0.0245   -6.2380   -2.9987 H       1  UNL1        0.0637
     53 H           2.3758   -6.9618   -2.8974 H       1  UNL1        0.0629
     54 H           1.4444   -9.5234    0.3850 H       1  UNL1        0.0629
     55 H          -0.9054   -8.7949    0.2858 H       1  UNL1        0.0637
@<TRIPOS>BOND
     1     1     2    1
     2     1    30    1
     3     1    31    1
     4     1    32    1
     5     2     3    1
     6     2    33    1
     7     2    34    1
     8     3     4    1
     9     3    35    1
    10     3    36    1
    11     4     5    1
    12     4     6    1
    13     4     7    1
    14     6    37    1
    15     6    38    1
    16     6    39    1
    17     7     8   am
    18     7    40    1
    19     8     9    2
    20     8    10    1
    21    10    11    1
    22    10    41    1
    23    10    42    1
    24    11    12    1
    25    20    11    1
    26    12    13    1
    27    12    43    1
    28    12    44    1
    29    13    14    1
    30    13    45    1
    31    13    46    1
    32    14    19   ar
    33    14    15   ar
    34    15    16   ar
    35    15    47    1
    36    16    17   ar
    37    16    48    1
    38    17    18   ar
    39    17    49    1
    40    18    19   ar
    41    18    50    1
    42    19    51    1
    43    20    21    2
    44    20    22    2
    45    20    23    1
    46    23    29   ar
    47    23    24   ar
    48    24    25   ar
    49    24    52    1
    50    25    26   ar
    51    25    53    1
    52    26    27    1
    53    26    28   ar
    54    28    29   ar
    55    28    54    1
    56    29    55    1
