@<TRIPOS>MOLECULE
ZINC000072346040
 49 51 0 0 0
SMALL
GASTEIGER

@<TRIPOS>ATOM
      1 C          -0.0173    1.4248    0.0099 C.3     1  UNL1        0.0371
      2 O           0.0021   -0.0041    0.0020 O.3     1  UNL1       -0.3738
      3 C           0.6518   -0.5703   -1.1379 C.3     1  UNL1        0.1235
      4 C           0.6137   -2.0738   -1.0425 C.2     1  UNL1        0.2413
      5 O           0.0824   -2.6078   -0.0920 O.2     1  UNL1       -0.2731
      6 N           1.1699   -2.8249   -2.0135 N.am    1  UNL1       -0.2990
      7 C           1.8224   -2.1924   -3.1680 C.3     1  UNL1        0.0148
      8 C           3.2429   -2.7510   -3.2987 C.3     1  UNL1       -0.0365
      9 C           3.1816   -4.2784   -3.3703 C.3     1  UNL1       -0.0419
     10 C           2.5635   -4.8268   -2.0821 C.3     1  UNL1        0.0179
     11 H           3.1600   -4.5070   -1.2276 H       1  UNL1        0.0379
     12 C           2.5339   -6.3324   -2.1396 C.ar    1  UNL1        0.0586
     13 N           1.8712   -6.9534   -3.0991 N.ar    1  UNL1       -0.2187
     14 C           1.8404   -8.2772   -3.1574 C.ar    1  UNL1        0.2128
     15 N           1.1354   -8.8890   -4.1785 N.pl3   1  UNL1       -0.3275
     16 N           2.4664   -9.0312   -2.2653 N.ar    1  UNL1       -0.2225
     17 C           3.1504   -8.4843   -1.2758 C.ar    1  UNL1        0.0406
     18 C           3.2119   -7.0917   -1.1822 C.ar    1  UNL1        0.0220
     19 C           3.9690   -6.4356   -0.0878 C.ar    1  UNL1       -0.0147
     20 C           4.8840   -5.4256   -0.3783 C.ar    1  UNL1       -0.0534
     21 C           5.5852   -4.8185    0.6437 C.ar    1  UNL1       -0.0495
     22 C           5.3813   -5.2111    1.9543 C.ar    1  UNL1        0.0548
     23 C           6.1499   -4.5443    3.0659 C.3     1  UNL1        0.4174
     24 F           5.4316   -3.4375    3.5309 F       1  UNL1       -0.1659
     25 F           6.3370   -5.4525    4.1135 F       1  UNL1       -0.1659
     26 F           7.3947   -4.1240    2.5853 F       1  UNL1       -0.1659
     27 C           4.4742   -6.2131    2.2484 C.ar    1  UNL1       -0.0495
     28 C           3.7634   -6.8232    1.2348 C.ar    1  UNL1       -0.0534
     29 C           1.1407   -4.2918   -1.9346 C.3     1  UNL1        0.0230
     30 H           1.0053    1.8021    0.0021 H       1  UNL1        0.0524
     31 H          -0.5445    1.7859   -0.8732 H       1  UNL1        0.0524
     32 H          -0.5275    1.7763    0.9067 H       1  UNL1        0.0524
     33 H           0.1385   -0.2506   -2.0447 H       1  UNL1        0.0656
     34 H           1.6883   -0.2344   -1.1694 H       1  UNL1        0.0656
     35 H           1.2578   -2.4142   -4.0736 H       1  UNL1        0.0464
     36 H           1.8663   -1.1138   -3.0173 H       1  UNL1        0.0464
     37 H           3.7045   -2.3624   -4.2065 H       1  UNL1        0.0281
     38 H           3.8330   -2.4507   -2.4328 H       1  UNL1        0.0281
     39 H           2.5709   -4.5778   -4.2221 H       1  UNL1        0.0273
     40 H           4.1891   -4.6772   -3.4881 H       1  UNL1        0.0273
     41 H           0.6725   -8.3500   -4.8389 H       1  UNL1        0.1452
     42 H           1.1039   -9.8569   -4.2340 H       1  UNL1        0.1452
     43 H           3.6582   -9.1048   -0.5523 H       1  UNL1        0.0837
     44 H           5.0445   -5.1188   -1.4013 H       1  UNL1        0.0624
     45 H           6.2946   -4.0356    0.4197 H       1  UNL1        0.0623
     46 H           4.3189   -6.5158    3.2734 H       1  UNL1        0.0623
     47 H           3.0554   -7.6055    1.4655 H       1  UNL1        0.0624
     48 H           0.7327   -4.5991   -0.9717 H       1  UNL1        0.0471
     49 H           0.5180   -4.6828   -2.7392 H       1  UNL1        0.0471
@<TRIPOS>BOND
     1     1     2    1
     2     1    30    1
     3     1    31    1
     4     1    32    1
     5     2     3    1
     6     3     4    1
     7     3    33    1
     8     3    34    1
     9     4     5    2
    10     4     6   am
    11     6    29    1
    12     6     7    1
    13     7     8    1
    14     7    35    1
    15     7    36    1
    16     8     9    1
    17     8    37    1
    18     8    38    1
    19     9    10    1
    20     9    39    1
    21     9    40    1
    22    10    11    1
    23    10    12    1
    24    10    29    1
    25    12    18   ar
    26    12    13   ar
    27    13    14   ar
    28    14    15    1
    29    14    16   ar
    30    15    41    1
    31    15    42    1
    32    16    17   ar
    33    17    18   ar
    34    17    43    1
    35    18    19    1
    36    19    28   ar
    37    19    20   ar
    38    20    21   ar
    39    20    44    1
    40    21    22   ar
    41    21    45    1
    42    22    23    1
    43    22    27   ar
    44    23    24    1
    45    23    25    1
    46    23    26    1
    47    27    28   ar
    48    27    46    1
    49    28    47    1
    50    29    48    1
    51    29    49    1
