@<TRIPOS>MOLECULE
ZINC000095444641
 49 51 0 0 0
SMALL
GASTEIGER

@<TRIPOS>ATOM
      1 C          -0.0173    1.4248    0.0099 C.3     1  UNL1        0.0788
      2 O           0.0021   -0.0041    0.0020 O.3     1  UNL1       -0.4951
      3 C           0.6058   -0.6071   -1.0557 C.ar    1  UNL1        0.1202
      4 C           1.1730    0.1607   -2.0624 C.ar    1  UNL1       -0.0181
      5 C           1.7865   -0.4547   -3.1363 C.ar    1  UNL1       -0.0319
      6 C           1.8352   -1.8346   -3.2086 C.ar    1  UNL1        0.1057
      7 S           2.6179   -2.6165   -4.5800 S.O2    1  UNL1        0.0610
      8 O           2.0536   -3.9171   -4.6761 O.2     1  UNL1       -0.1528
      9 O           2.5918   -1.6772   -5.6459 O.2     1  UNL1       -0.1528
     10 N           4.2113   -2.8264   -4.1806 N.3     1  UNL1       -0.1730
     11 C           5.4488   -2.0433   -4.3154 C.3     1  UNL1        0.0402
     12 C           5.9863   -2.7818   -3.0818 C.3     1  UNL1        0.0519
     13 N           5.6346   -2.1545   -1.8055 N.am    1  UNL1       -0.3071
     14 C           6.4059   -2.3583   -0.7192 C.2     1  UNL1        0.2510
     15 O           7.3913   -3.0609   -0.7983 O.2     1  UNL1       -0.2721
     16 C           6.0441   -1.7130    0.5937 C.3     1  UNL1        0.1651
     17 O           7.0069   -2.0772    1.5848 O.3     1  UNL1       -0.4828
     18 C           6.8257   -1.5754    2.8347 C.ar    1  UNL1        0.1212
     19 C           5.7404   -0.7540    3.1031 C.ar    1  UNL1       -0.0194
     20 C           5.5582   -0.2456    4.3746 C.ar    1  UNL1       -0.0467
     21 C           6.4567   -0.5543    5.3792 C.ar    1  UNL1        0.0550
     22 C           6.2558    0.0021    6.7652 C.3     1  UNL1        0.4174
     23 F           5.4727   -0.8828    7.5140 F       1  UNL1       -0.1659
     24 F           7.4984    0.1656    7.3867 F       1  UNL1       -0.1659
     25 F           5.6098    1.2402    6.6816 F       1  UNL1       -0.1659
     26 C           7.5389   -1.3731    5.1144 C.ar    1  UNL1       -0.0467
     27 C           7.7226   -1.8883    3.8458 C.ar    1  UNL1       -0.0194
     28 C           5.0104   -3.8752   -3.5293 C.3     1  UNL1        0.0402
     29 C           1.2710   -2.6021   -2.2063 C.ar    1  UNL1       -0.0319
     30 C           0.6609   -1.9915   -1.1277 C.ar    1  UNL1       -0.0181
     31 H           1.0053    1.8021    0.0021 H       1  UNL1        0.0660
     32 H          -0.5445    1.7859   -0.8732 H       1  UNL1        0.0660
     33 H          -0.5275    1.7763    0.9067 H       1  UNL1        0.0660
     34 H           1.1347    1.2385   -2.0068 H       1  UNL1        0.0655
     35 H           2.2283    0.1425   -3.9203 H       1  UNL1        0.0638
     36 H           6.0035   -2.2617   -5.2279 H       1  UNL1        0.0463
     37 H           5.3061   -0.9749   -4.1537 H       1  UNL1        0.0463
     38 H           7.0383   -3.0592   -3.1501 H       1  UNL1        0.0525
     39 H           4.8465   -1.5925   -1.7422 H       1  UNL1        0.1492
     40 H           6.0360   -0.6294    0.4759 H       1  UNL1        0.0795
     41 H           5.0560   -2.0519    0.9050 H       1  UNL1        0.0795
     42 H           5.0387   -0.5120    2.3186 H       1  UNL1        0.0654
     43 H           4.7134    0.3939    4.5841 H       1  UNL1        0.0624
     44 H           8.2391   -1.6130    5.9008 H       1  UNL1        0.0624
     45 H           8.5681   -2.5278    3.6395 H       1  UNL1        0.0654
     46 H           4.4968   -4.3639   -2.7014 H       1  UNL1        0.0463
     47 H           5.4461   -4.5843   -4.2332 H       1  UNL1        0.0463
     48 H           1.3106   -3.6797   -2.2649 H       1  UNL1        0.0638
     49 H           0.2204   -2.5913   -0.3451 H       1  UNL1        0.0655
@<TRIPOS>BOND
     1     1     2    1
     2     1    31    1
     3     1    32    1
     4     1    33    1
     5     2     3    1
     6     3    30   ar
     7     3     4   ar
     8     4     5   ar
     9     4    34    1
    10     5     6   ar
    11     5    35    1
    12     6     7    1
    13     6    29   ar
    14     7     8    2
    15     7     9    2
    16     7    10    1
    17    10    28    1
    18    10    11    1
    19    11    12    1
    20    11    36    1
    21    11    37    1
    22    12    13    1
    23    12    28    1
    24    12    38    1
    25    13    14   am
    26    13    39    1
    27    14    15    2
    28    14    16    1
    29    16    17    1
    30    16    40    1
    31    16    41    1
    32    17    18    1
    33    18    27   ar
    34    18    19   ar
    35    19    20   ar
    36    19    42    1
    37    20    21   ar
    38    20    43    1
    39    21    22    1
    40    21    26   ar
    41    22    23    1
    42    22    24    1
    43    22    25    1
    44    26    27   ar
    45    26    44    1
    46    27    45    1
    47    28    46    1
    48    28    47    1
    49    29    30   ar
    50    29    48    1
    51    30    49    1
