@<TRIPOS>MOLECULE
ZINC000408618783
 56 57 0 0 0
SMALL
GASTEIGER

@<TRIPOS>ATOM
      1 C          -0.0173    1.4248    0.0099 C.3     1  UNL1        0.0365
      2 O           0.0021   -0.0041    0.0020 O.3     1  UNL1       -0.3812
      3 C          -1.2953   -0.6030    0.0112 C.3     1  UNL1        0.0654
      4 C          -1.1538   -2.1264    0.0017 C.3     1  UNL1        0.0437
      5 H          -2.1387   -2.5834    0.0982 H       1  UNL1        0.0518
      6 C          -0.2716   -2.5640    1.1726 C.3     1  UNL1       -0.0445
      7 N          -0.5394   -2.5519   -1.2584 N.am    1  UNL1       -0.3094
      8 C          -0.7570   -3.7964   -1.7277 C.2     1  UNL1        0.2291
      9 O          -1.4615   -4.5641   -1.1069 O.2     1  UNL1       -0.2743
     10 C          -0.1250   -4.2341   -3.0239 C.3     1  UNL1        0.0971
     11 N          -0.5122   -5.6171   -3.3134 N.3     1  UNL1       -0.1635
     12 C          -1.7767   -5.8956   -3.9986 C.3     1  UNL1        0.0460
     13 C          -1.5740   -5.7929   -5.4884 C.ar    1  UNL1       -0.0316
     14 C          -1.7547   -4.5811   -6.1286 C.ar    1  UNL1       -0.0570
     15 C          -1.5687   -4.4869   -7.4952 C.ar    1  UNL1       -0.0585
     16 C          -1.2017   -5.6044   -8.2214 C.ar    1  UNL1       -0.0504
     17 C          -0.9995   -5.5018   -9.7113 C.3     1  UNL1       -0.0397
     18 C          -1.0198   -6.8158   -7.5810 C.ar    1  UNL1       -0.0585
     19 C          -1.2020   -6.9092   -6.2139 C.ar    1  UNL1       -0.0570
     20 S           0.4796   -6.8655   -2.8661 S.O2    1  UNL1        0.0616
     21 O           0.1604   -7.9567   -3.7185 O.2     1  UNL1       -0.1528
     22 O           1.7874   -6.3202   -2.7583 O.2     1  UNL1       -0.1528
     23 C           0.0070   -7.3500   -1.2393 C.ar    1  UNL1        0.1055
     24 C           0.5967   -6.7522   -0.1413 C.ar    1  UNL1       -0.0351
     25 C           0.2259   -7.1323    1.1350 C.ar    1  UNL1       -0.0570
     26 C          -0.7350   -8.1100    1.3132 C.ar    1  UNL1       -0.0503
     27 C          -1.1390   -8.5247    2.7046 C.3     1  UNL1       -0.0397
     28 C          -1.3258   -8.7068    0.2152 C.ar    1  UNL1       -0.0570
     29 C          -0.9577   -8.3240   -1.0611 C.ar    1  UNL1       -0.0351
     30 H           1.0053    1.8021    0.0021 H       1  UNL1        0.0523
     31 H          -0.5445    1.7859   -0.8732 H       1  UNL1        0.0523
     32 H          -0.5275    1.7763    0.9067 H       1  UNL1        0.0523
     33 H          -1.8320   -0.2936    0.9080 H       1  UNL1        0.0578
     34 H          -1.8490   -0.2840   -0.8718 H       1  UNL1        0.0578
     35 H          -0.7287   -2.2474    2.1101 H       1  UNL1        0.0248
     36 H          -0.1708   -3.6493    1.1658 H       1  UNL1        0.0248
     37 H           0.7133   -2.1070    1.0761 H       1  UNL1        0.0248
     38 H           0.0240   -1.9380   -1.7549 H       1  UNL1        0.1491
     39 H          -0.4647   -3.5852   -3.8311 H       1  UNL1        0.0539
     40 H           0.9598   -4.1708   -2.9387 H       1  UNL1        0.0539
     41 H          -2.1130   -6.9012   -3.7462 H       1  UNL1        0.0493
     42 H          -2.5280   -5.1714   -3.6834 H       1  UNL1        0.0493
     43 H          -2.0414   -3.7081   -5.5612 H       1  UNL1        0.0621
     44 H          -1.7106   -3.5403   -7.9955 H       1  UNL1        0.0620
     45 H           0.0400   -5.2492   -9.9203 H       1  UNL1        0.0278
     46 H          -1.2422   -6.4567  -10.1775 H       1  UNL1        0.0278
     47 H          -1.6500   -4.7252  -10.1136 H       1  UNL1        0.0278
     48 H          -0.7327   -7.6888   -8.1484 H       1  UNL1        0.0620
     49 H          -1.0598   -7.8557   -5.7136 H       1  UNL1        0.0621
     50 H           1.3475   -5.9884   -0.2805 H       1  UNL1        0.0637
     51 H           0.6872   -6.6658    1.9928 H       1  UNL1        0.0621
     52 H          -1.9690   -7.9041    3.0421 H       1  UNL1        0.0278
     53 H          -1.4467   -9.5703    2.6971 H       1  UNL1        0.0278
     54 H          -0.2933   -8.3996    3.3809 H       1  UNL1        0.0278
     55 H          -2.0768   -9.4703    0.3544 H       1  UNL1        0.0621
     56 H          -1.4193   -8.7902   -1.9190 H       1  UNL1        0.0637
@<TRIPOS>BOND
     1     1     2    1
     2     1    30    1
     3     1    31    1
     4     1    32    1
     5     2     3    1
     6     3     4    1
     7     3    33    1
     8     3    34    1
     9     4     5    1
    10     4     6    1
    11     4     7    1
    12     6    35    1
    13     6    36    1
    14     6    37    1
    15     7     8   am
    16     7    38    1
    17     8     9    2
    18     8    10    1
    19    10    11    1
    20    10    39    1
    21    10    40    1
    22    11    12    1
    23    20    11    1
    24    12    13    1
    25    12    41    1
    26    12    42    1
    27    13    19   ar
    28    13    14   ar
    29    14    15   ar
    30    14    43    1
    31    15    16   ar
    32    15    44    1
    33    16    17    1
    34    16    18   ar
    35    17    45    1
    36    17    46    1
    37    17    47    1
    38    18    19   ar
    39    18    48    1
    40    19    49    1
    41    20    21    2
    42    20    22    2
    43    20    23    1
    44    23    29   ar
    45    23    24   ar
    46    24    25   ar
    47    24    50    1
    48    25    26   ar
    49    25    51    1
    50    26    27    1
    51    26    28   ar
    52    27    52    1
    53    27    53    1
    54    27    54    1
    55    28    29   ar
    56    28    55    1
    57    29    56    1
