@<TRIPOS>MOLECULE
ZINC000408702282
 49 51 0 0 0
SMALL
GASTEIGER

@<TRIPOS>ATOM
      1 C           0.7135    1.3479   -0.0872 C.3     1  UNL1       -0.0362
      2 C           0.2645   -0.1091   -0.2151 C.3     1  UNL1        0.1191
      3 H          -0.8089   -0.1435   -0.4019 H       1  UNL1        0.0612
      4 C           0.9948   -0.7611   -1.3608 C.2     1  UNL1        0.2392
      5 O           1.9888   -1.4229   -1.1482 O.2     1  UNL1       -0.2734
      6 N           0.5435   -0.6089   -2.6216 N.am    1  UNL1       -0.2827
      7 C           1.2804   -1.1219   -3.6955 C.ar    1  UNL1        0.0524
      8 C           2.6296   -1.4082   -3.5396 C.ar    1  UNL1       -0.0274
      9 C           3.3542   -1.9149   -4.6012 C.ar    1  UNL1        0.0566
     10 C           4.8189   -2.2264   -4.4321 C.3     1  UNL1        0.4175
     11 F           4.9678   -3.5493   -4.0021 F       1  UNL1       -0.1659
     12 F           5.4760   -2.0569   -5.6556 F       1  UNL1       -0.1659
     13 F           5.3728   -1.3619   -3.4818 F       1  UNL1       -0.1659
     14 C           2.7373   -2.1371   -5.8183 C.ar    1  UNL1       -0.0486
     15 C           1.3932   -1.8528   -5.9780 C.ar    1  UNL1       -0.0411
     16 C           0.6613   -1.3512   -4.9186 C.ar    1  UNL1        0.0621
     17 CL         -1.0259   -0.9949   -5.1192 Cl      1  UNL1       -0.0816
     18 N           0.5671   -0.8242    1.0272 N.pl3   1  UNL1       -0.1959
     19 C           1.8798   -0.8630    1.5101 C.ar    1  UNL1        0.0554
     20 C           2.5080    0.3088    1.9093 C.ar    1  UNL1       -0.0354
     21 C           3.8052    0.2711    2.3842 C.ar    1  UNL1       -0.0145
     22 C           4.4832   -0.9357    2.4638 C.ar    1  UNL1        0.1622
     23 O           5.7644   -0.9519    2.9266 O.3     1  UNL1       -0.4849
     24 C           6.2830   -2.2203    3.3412 C.3     1  UNL1        0.1237
     25 C           5.9288   -3.2586    2.2680 C.3     1  UNL1        0.1237
     26 O           4.5033   -3.3062    2.1437 O.3     1  UNL1       -0.4849
     27 C           3.8556   -2.1114    2.0683 C.ar    1  UNL1        0.1639
     28 C           2.5529   -2.0740    1.5956 C.ar    1  UNL1        0.0064
     29 S          -0.6443   -1.5867    1.8599 S.O2    1  UNL1        0.0433
     30 C          -0.7588   -3.2263    1.0922 C.3     1  UNL1        0.0738
     31 O          -0.1459   -1.6909    3.1865 O.2     1  UNL1       -0.1552
     32 O          -1.8048   -0.8190    1.5715 O.2     1  UNL1       -0.1552
     33 H           1.8009    1.3888   -0.0252 H       1  UNL1        0.0253
     34 H           0.3779    1.9094   -0.9591 H       1  UNL1        0.0253
     35 H           0.2815    1.7835    0.8137 H       1  UNL1        0.0253
     36 H          -0.2919   -0.1438   -2.7848 H       1  UNL1        0.1549
     37 H           3.1127   -1.2347   -2.5894 H       1  UNL1        0.0642
     38 H           3.3062   -2.5333   -6.6464 H       1  UNL1        0.0623
     39 H           0.9142   -2.0271   -6.9302 H       1  UNL1        0.0633
     40 H           1.9827    1.2505    1.8483 H       1  UNL1        0.0638
     41 H           4.2922    1.1840    2.6938 H       1  UNL1        0.0656
     42 H           7.3659   -2.1574    3.4485 H       1  UNL1        0.0731
     43 H           5.8349   -2.5075    4.2924 H       1  UNL1        0.0731
     44 H           6.3714   -2.9680    1.3152 H       1  UNL1        0.0731
     45 H           6.3048   -4.2375    2.5653 H       1  UNL1        0.0731
     46 H           2.0632   -2.9867    1.2897 H       1  UNL1        0.0674
     47 H           0.1388   -3.7995    1.3242 H       1  UNL1        0.0482
     48 H          -1.6336   -3.7485    1.4796 H       1  UNL1        0.0482
     49 H          -0.8503   -3.1160    0.0117 H       1  UNL1        0.0482
@<TRIPOS>BOND
     1     1     2    1
     2     1    33    1
     3     1    34    1
     4     1    35    1
     5     2     3    1
     6     2     4    1
     7     2    18    1
     8     4     5    2
     9     4     6   am
    10     6     7    1
    11     6    36    1
    12     7    16   ar
    13     7     8   ar
    14     8     9   ar
    15     8    37    1
    16     9    10    1
    17     9    14   ar
    18    10    11    1
    19    10    12    1
    20    10    13    1
    21    14    15   ar
    22    14    38    1
    23    15    16   ar
    24    15    39    1
    25    16    17    1
    26    18    19    1
    27    29    18    1
    28    19    28   ar
    29    19    20   ar
    30    20    21   ar
    31    20    40    1
    32    21    22   ar
    33    21    41    1
    34    22    27   ar
    35    22    23    1
    36    23    24    1
    37    24    25    1
    38    24    42    1
    39    24    43    1
    40    25    26    1
    41    25    44    1
    42    25    45    1
    43    26    27    1
    44    27    28   ar
    45    28    46    1
    46    29    30    1
    47    29    31    2
    48    29    32    2
    49    30    47    1
    50    30    48    1
    51    30    49    1
