@<TRIPOS>MOLECULE
ZINC000426410422
 43 45 0 0 0
SMALL
GASTEIGER

@<TRIPOS>ATOM
      1 N           0.3603   -0.9900    4.4873 N.1     1  UNL1       -0.1963
      2 C           0.3898   -0.1601    3.7122 C.1     1  UNL1        0.0660
      3 C           0.4281    0.9154    2.7078 C.3     1  UNL1        0.0490
      4 C          -0.5884    1.9971    3.0801 C.3     1  UNL1       -0.0214
      5 C          -0.5703    3.0976    2.0145 C.3     1  UNL1        0.0161
      6 N           0.8063    3.5889    1.8654 N.am    1  UNL1       -0.2974
      7 C           1.0818    4.9037    1.9742 C.2     1  UNL1        0.2466
      8 O           0.1791    5.7031    2.1289 O.2     1  UNL1       -0.2700
      9 C           2.4807    5.3734    1.9054 C.ar    1  UNL1        0.0369
     10 C           3.3025    4.9699    0.8500 C.ar    1  UNL1       -0.0491
     11 C           4.6058    5.4086    0.7867 C.ar    1  UNL1       -0.0533
     12 C           5.1062    6.2554    1.7760 C.ar    1  UNL1       -0.0178
     13 C           6.5101    6.7273    1.7066 C.ar    1  UNL1       -0.0179
     14 C           7.3301    6.3310    0.6513 C.ar    1  UNL1       -0.0535
     15 C           8.6359    6.7738    0.5917 C.ar    1  UNL1       -0.0495
     16 C           9.1315    7.6088    1.5769 C.ar    1  UNL1        0.0548
     17 C          10.5584    8.0884    1.5064 C.3     1  UNL1        0.4174
     18 F          10.6122    9.2881    0.7887 F       1  UNL1       -0.1659
     19 F          11.0446    8.2976    2.8015 F       1  UNL1       -0.1659
     20 F          11.3430    7.1249    0.8637 F       1  UNL1       -0.1659
     21 C           8.3223    8.0057    2.6263 C.ar    1  UNL1       -0.0495
     22 C           7.0134    7.5735    2.6935 C.ar    1  UNL1       -0.0535
     23 C           4.2865    6.6589    2.8302 C.ar    1  UNL1       -0.0533
     24 C           2.9811    6.2261    2.8925 C.ar    1  UNL1       -0.0491
     25 C           1.8770    2.6195    1.5959 C.3     1  UNL1        0.0161
     26 C           1.8315    1.5244    2.6662 C.3     1  UNL1       -0.0214
     27 H           0.1805    0.5064    1.7283 H       1  UNL1        0.0455
     28 H          -1.5845    1.5578    3.1324 H       1  UNL1        0.0293
     29 H          -0.3272    2.4240    4.0484 H       1  UNL1        0.0293
     30 H          -0.9185    2.6922    1.0646 H       1  UNL1        0.0465
     31 H          -1.2191    3.9169    2.3243 H       1  UNL1        0.0465
     32 H           2.9155    4.3138    0.0844 H       1  UNL1        0.0625
     33 H           5.2413    5.0968   -0.0290 H       1  UNL1        0.0624
     34 H           6.9444    5.6786   -0.1181 H       1  UNL1        0.0624
     35 H           9.2721    6.4674   -0.2255 H       1  UNL1        0.0623
     36 H           8.7145    8.6580    3.3925 H       1  UNL1        0.0623
     37 H           6.3824    7.8843    3.5131 H       1  UNL1        0.0624
     38 H           4.6748    7.3145    3.5955 H       1  UNL1        0.0624
     39 H           2.3466    6.5388    3.7085 H       1  UNL1        0.0625
     40 H           1.7284    2.1750    0.6118 H       1  UNL1        0.0465
     41 H           2.8430    3.1233    1.6295 H       1  UNL1        0.0465
     42 H           2.0699    1.9557    3.6384 H       1  UNL1        0.0293
     43 H           2.5577    0.7485    2.4239 H       1  UNL1        0.0293
@<TRIPOS>BOND
     1     1     2    3
     2     2     3    1
     3     3    26    1
     4     3     4    1
     5     3    27    1
     6     4     5    1
     7     4    28    1
     8     4    29    1
     9     5     6    1
    10     5    30    1
    11     5    31    1
    12     6     7   am
    13     6    25    1
    14     7     8    2
    15     7     9    1
    16     9    24   ar
    17     9    10   ar
    18    10    11   ar
    19    10    32    1
    20    11    12   ar
    21    11    33    1
    22    12    13    1
    23    12    23   ar
    24    13    22   ar
    25    13    14   ar
    26    14    15   ar
    27    14    34    1
    28    15    16   ar
    29    15    35    1
    30    16    17    1
    31    16    21   ar
    32    17    18    1
    33    17    19    1
    34    17    20    1
    35    21    22   ar
    36    21    36    1
    37    22    37    1
    38    23    24   ar
    39    23    38    1
    40    24    39    1
    41    25    26    1
    42    25    40    1
    43    25    41    1
    44    26    42    1
    45    26    43    1
