@<TRIPOS>MOLECULE
ZINC000112511461
 42 43 0 0 0
SMALL
GASTEIGER

@<TRIPOS>ATOM
      1 C          -0.0187    1.5258    0.0104 C.3     1  UNL1       -0.0214
      2 C           0.0021   -0.0041    0.0020 C.3     1  UNL1       -0.0231
      3 H          -1.0205   -0.3814    0.0098 H       1  UNL1        0.0850
      4 N           0.7126   -0.4907    1.1921 N.4     1  UNL1        0.2208
      5 H           0.2403   -0.1653    2.0223 H       1  UNL1        0.1997
      6 H           0.7262   -1.4996    1.1866 H       1  UNL1        0.1997
      7 H           1.6592   -0.1414    1.1850 H       1  UNL1        0.1997
      8 C           0.7182   -0.4975   -1.2568 C.3     1  UNL1        0.0161
      9 H           0.2447   -0.0646   -2.1380 H       1  UNL1        0.0368
     10 C           2.1882   -0.0746   -1.2071 C.3     1  UNL1       -0.0427
     11 C           2.8978   -0.5392   -2.4810 C.3     1  UNL1       -0.0381
     12 C           2.8369   -2.0676   -2.5661 C.3     1  UNL1        0.0205
     13 N           1.4334   -2.4912   -2.4684 N.3     1  UNL1       -0.1761
     14 S           0.7669   -3.4753   -3.6215 S.O2    1  UNL1        0.0609
     15 O          -0.6361   -3.2550   -3.5748 O.2     1  UNL1       -0.1528
     16 O           1.5430   -3.2971   -4.7985 O.2     1  UNL1       -0.1528
     17 C           1.0269   -5.1386   -3.1012 C.ar    1  UNL1        0.1055
     18 C           2.1753   -5.8093   -3.4785 C.ar    1  UNL1       -0.0348
     19 C           2.3792   -7.1142   -3.0704 C.ar    1  UNL1       -0.0483
     20 C           1.4351   -7.7482   -2.2846 C.ar    1  UNL1        0.0549
     21 C           1.6572   -9.1709   -1.8400 C.3     1  UNL1        0.4174
     22 F           2.3373   -9.1766   -0.6175 F       1  UNL1       -0.1659
     23 F           0.4222   -9.8107   -1.6897 F       1  UNL1       -0.1659
     24 F           2.4184   -9.8460   -2.8002 F       1  UNL1       -0.1659
     25 C           0.2874   -7.0770   -1.9061 C.ar    1  UNL1       -0.0483
     26 C           0.0852   -5.7708   -2.3111 C.ar    1  UNL1       -0.0348
     27 C           0.6320   -2.0253   -1.3284 C.3     1  UNL1        0.0284
     28 H           1.0039    1.9031    0.0027 H       1  UNL1        0.0284
     29 H          -0.5459    1.8868   -0.8726 H       1  UNL1        0.0284
     30 H          -0.5289    1.8773    0.9072 H       1  UNL1        0.0284
     31 H           2.2514    1.0109   -1.1316 H       1  UNL1        0.0271
     32 H           2.6672   -0.5274   -0.3389 H       1  UNL1        0.0271
     33 H           2.4039   -0.1065   -3.3510 H       1  UNL1        0.0278
     34 H           3.9389   -0.2174   -2.4555 H       1  UNL1        0.0278
     35 H           3.2527   -2.3974   -3.5182 H       1  UNL1        0.0444
     36 H           3.4077   -2.5023   -1.7455 H       1  UNL1        0.0444
     37 H           2.9129   -5.3140   -4.0925 H       1  UNL1        0.0637
     38 H           3.2761   -7.6384   -3.3658 H       1  UNL1        0.0624
     39 H          -0.4501   -7.5722   -1.2919 H       1  UNL1        0.0624
     40 H          -0.8114   -5.2464   -2.0154 H       1  UNL1        0.0637
     41 H           1.0227   -2.4562   -0.4066 H       1  UNL1        0.0449
     42 H          -0.4065   -2.3275   -1.4640 H       1  UNL1        0.0449
@<TRIPOS>UNITY_ATOM_ATTR
4 1
charge 1
@<TRIPOS>BOND
     1     1     2    1
     2     1    28    1
     3     1    29    1
     4     1    30    1
     5     2     3    1
     6     2     4    1
     7     2     8    1
     8     4     5    1
     9     4     6    1
    10     4     7    1
    11     8     9    1
    12     8    27    1
    13     8    10    1
    14    10    11    1
    15    10    31    1
    16    10    32    1
    17    11    12    1
    18    11    33    1
    19    11    34    1
    20    12    13    1
    21    12    35    1
    22    12    36    1
    23    14    13    1
    24    13    27    1
    25    14    15    2
    26    14    16    2
    27    14    17    1
    28    17    26   ar
    29    17    18   ar
    30    18    19   ar
    31    18    37    1
    32    19    20   ar
    33    19    38    1
    34    20    21    1
    35    20    25   ar
    36    21    22    1
    37    21    23    1
    38    21    24    1
    39    25    26   ar
    40    25    39    1
    41    26    40    1
    42    27    41    1
    43    27    42    1
