@<TRIPOS>MOLECULE
ZINC000009439956
 60 62 0 0 0
SMALL
GASTEIGER

@<TRIPOS>ATOM
      1 C          -0.0530    1.5801   -0.0439 C.3     1  UNL1       -0.0613
      2 C          -0.0391    0.0501   -0.0482 C.3     1  UNL1       -0.0305
      3 C           0.6711   -0.4423   -1.2828 C.ar    1  UNL1       -0.0475
      4 C          -0.0430   -0.6700   -2.4449 C.ar    1  UNL1       -0.0568
      5 C           0.6050   -1.1213   -3.5781 C.ar    1  UNL1       -0.0400
      6 C           1.9751   -1.3459   -3.5496 C.ar    1  UNL1        0.0363
      7 N           2.6346   -1.8026   -4.6961 N.am    1  UNL1       -0.2706
      8 C           4.0887   -1.9696   -4.8038 C.3     1  UNL1        0.0331
      9 C           4.3093   -2.8788   -6.0330 C.3     1  UNL1        0.0807
     10 H           4.3625   -3.9269   -5.7385 H       1  UNL1        0.0434
     11 C           5.5466   -2.4709   -6.7905 C.2     1  UNL1        0.3126
     12 O           6.2119   -1.5393   -6.4040 O.2     1  UNL1       -0.2505
     13 O           5.9096   -3.1425   -7.8945 O.3     1  UNL1       -0.4549
     14 C           7.1124   -2.6942   -8.5732 C.3     1  UNL1        0.1683
     15 C           7.3600   -3.5605   -9.7812 C.2     1  UNL1        0.2549
     16 O           6.5978   -4.4666  -10.0443 O.2     1  UNL1       -0.2717
     17 N           8.4285   -3.3285  -10.5693 N.am    1  UNL1       -0.2827
     18 C           8.5972   -4.0574  -11.7517 C.ar    1  UNL1        0.0336
     19 C           9.8720   -4.4050  -12.1790 C.ar    1  UNL1       -0.0386
     20 C          10.0351   -5.1244  -13.3466 C.ar    1  UNL1       -0.0336
     21 C           8.9308   -5.4982  -14.0902 C.ar    1  UNL1        0.1056
     22 S           9.1432   -6.4155  -15.5795 S.O2    1  UNL1        0.0604
     23 O           7.9856   -6.1748  -16.3676 O.2     1  UNL1       -0.1529
     24 O          10.4624   -6.1443  -16.0330 O.2     1  UNL1       -0.1529
     25 N           9.1084   -8.0211  -15.1755 N.3     1  UNL1       -0.1827
     26 C           7.8358   -8.7467  -15.1667 C.3     1  UNL1        0.0086
     27 C          10.3502   -8.7158  -14.8270 C.3     1  UNL1        0.0086
     28 C           7.6600   -5.1540  -13.6672 C.ar    1  UNL1       -0.0336
     29 C           7.4898   -4.4396  -12.4975 C.ar    1  UNL1       -0.0386
     30 C           3.0346   -2.6013   -6.8632 C.3     1  UNL1        0.0389
     31 C           2.0173   -2.1503   -5.8384 C.2     1  UNL1        0.2206
     32 O           0.8195   -2.1024   -6.0231 O.2     1  UNL1       -0.2752
     33 C           2.6894   -1.1158   -2.3811 C.ar    1  UNL1       -0.0400
     34 C           2.0363   -0.6599   -1.2528 C.ar    1  UNL1       -0.0568
     35 H           0.9713    1.9527   -0.0468 H       1  UNL1        0.0233
     36 H          -0.5736    1.9412   -0.9309 H       1  UNL1        0.0233
     37 H          -0.5667    1.9362    0.8491 H       1  UNL1        0.0233
     38 H           0.4814   -0.3110    0.8388 H       1  UNL1        0.0311
     39 H          -1.0635   -0.3225   -0.0454 H       1  UNL1        0.0311
     40 H          -1.1085   -0.4951   -2.4664 H       1  UNL1        0.0621
     41 H           0.0466   -1.2996   -4.4852 H       1  UNL1        0.0636
     42 H           4.5690   -1.0034   -4.9582 H       1  UNL1        0.0477
     43 H           4.4811   -2.4473   -3.9060 H       1  UNL1        0.0477
     44 H           6.9870   -1.6584   -8.8885 H       1  UNL1        0.0796
     45 H           7.9615   -2.7670   -7.8937 H       1  UNL1        0.0796
     46 H           9.0805   -2.6562  -10.3167 H       1  UNL1        0.1549
     47 H          10.7349   -4.1127  -11.5991 H       1  UNL1        0.0637
     48 H          11.0263   -5.3951  -13.6794 H       1  UNL1        0.0638
     49 H           7.6566   -9.1780  -16.1515 H       1  UNL1        0.0408
     50 H           7.8767   -9.5429  -14.4233 H       1  UNL1        0.0408
     51 H           7.0272   -8.0591  -14.9185 H       1  UNL1        0.0408
     52 H          11.1861   -8.0190  -14.8889 H       1  UNL1        0.0408
     53 H          10.2761   -9.1050  -13.8115 H       1  UNL1        0.0408
     54 H          10.5124   -9.5403  -15.5212 H       1  UNL1        0.0408
     55 H           6.7995   -5.4474  -14.2502 H       1  UNL1        0.0638
     56 H           6.4971   -4.1710  -12.1677 H       1  UNL1        0.0637
     57 H           3.2195   -1.8146   -7.5946 H       1  UNL1        0.0367
     58 H           2.6959   -3.5115   -7.3579 H       1  UNL1        0.0367
     59 H           3.7550   -1.2895   -2.3559 H       1  UNL1        0.0636
     60 H           2.5912   -0.4808   -0.3437 H       1  UNL1        0.0621
@<TRIPOS>BOND
     1     1     2    1
     2     1    35    1
     3     1    36    1
     4     1    37    1
     5     2     3    1
     6     2    38    1
     7     2    39    1
     8     3    34   ar
     9     3     4   ar
    10     4     5   ar
    11     4    40    1
    12     5     6   ar
    13     5    41    1
    14     6     7    1
    15     6    33   ar
    16     7    31   am
    17     7     8    1
    18     8     9    1
    19     8    42    1
    20     8    43    1
    21     9    10    1
    22     9    11    1
    23     9    30    1
    24    11    12    2
    25    11    13    1
    26    13    14    1
    27    14    15    1
    28    14    44    1
    29    14    45    1
    30    15    16    2
    31    15    17   am
    32    17    18    1
    33    17    46    1
    34    18    29   ar
    35    18    19   ar
    36    19    20   ar
    37    19    47    1
    38    20    21   ar
    39    20    48    1
    40    21    22    1
    41    21    28   ar
    42    22    23    2
    43    22    24    2
    44    22    25    1
    45    25    26    1
    46    25    27    1
    47    26    49    1
    48    26    50    1
    49    26    51    1
    50    27    52    1
    51    27    53    1
    52    27    54    1
    53    28    29   ar
    54    28    55    1
    55    29    56    1
    56    30    31    1
    57    30    57    1
    58    30    58    1
    59    31    32    2
    60    33    34   ar
    61    33    59    1
    62    34    60    1
