@<TRIPOS>MOLECULE
ZINC000071871298
 45 46 0 0 0
SMALL
GASTEIGER

@<TRIPOS>ATOM
      1 C           1.9583    1.3845   -0.1785 C.3     1  UNL1       -0.0377
      2 C           1.9708   -0.1185   -0.4642 C.3     1  UNL1        0.0651
      3 H           1.9847   -0.6672    0.4776 H       1  UNL1        0.0603
      4 O           3.1342   -0.4491   -1.2252 O.3     1  UNL1       -0.3908
      5 C           0.7182   -0.4975   -1.2568 C.3     1  UNL1        0.0248
      6 N           0.6760   -1.9546   -1.4387 N.3     1  UNL1       -0.2969
      7 C           0.9225   -2.6510   -0.1689 C.3     1  UNL1        0.0149
      8 C           0.6920   -4.1537   -0.3612 C.3     1  UNL1        0.0276
      9 N           1.5142   -4.6116   -1.4915 N.am    1  UNL1       -0.2963
     10 C           2.3289   -5.6780   -1.3670 C.2     1  UNL1        0.2533
     11 O           2.3911   -6.2737   -0.3124 O.2     1  UNL1       -0.2719
     12 C           3.1627   -6.1301   -2.5381 C.3     1  UNL1        0.1653
     13 O           3.9363   -7.2705   -2.1600 O.3     1  UNL1       -0.4828
     14 C           4.7491   -7.8065   -3.1081 C.ar    1  UNL1        0.1212
     15 C           4.8053   -7.2429   -4.3745 C.ar    1  UNL1       -0.0194
     16 C           5.6327   -7.7893   -5.3364 C.ar    1  UNL1       -0.0467
     17 C           6.4041   -8.8974   -5.0380 C.ar    1  UNL1        0.0550
     18 C           7.3054   -9.4917   -6.0893 C.3     1  UNL1        0.4174
     19 F           8.5649   -8.8867   -6.0200 F       1  UNL1       -0.1659
     20 F           7.4359  -10.8670   -5.8684 F       1  UNL1       -0.1659
     21 F           6.7522   -9.2732   -7.3556 F       1  UNL1       -0.1659
     22 C           6.3502   -9.4607   -3.7764 C.ar    1  UNL1       -0.0467
     23 C           5.5283   -8.9148   -2.8095 C.ar    1  UNL1       -0.0194
     24 C           1.4233   -3.8752   -2.7615 C.3     1  UNL1        0.0276
     25 C           1.6251   -2.3835   -2.4747 C.3     1  UNL1        0.0149
     26 H           1.9445    1.9332   -1.1203 H       1  UNL1        0.0255
     27 H           1.0709    1.6367    0.4020 H       1  UNL1        0.0255
     28 H           2.8507    1.6545    0.3861 H       1  UNL1        0.0255
     29 H           3.1883    0.0038   -2.0779 H       1  UNL1        0.2098
     30 H          -0.1684   -0.1735   -0.7118 H       1  UNL1        0.0452
     31 H           0.7438   -0.0102   -2.2315 H       1  UNL1        0.0452
     32 H           1.9514   -2.4783    0.1468 H       1  UNL1        0.0442
     33 H           0.2398   -2.2727    0.5919 H       1  UNL1        0.0442
     34 H           0.9833   -4.6875    0.5434 H       1  UNL1        0.0477
     35 H          -0.3606   -4.3381   -0.5758 H       1  UNL1        0.0477
     36 H           2.5088   -6.3939   -3.3693 H       1  UNL1        0.0795
     37 H           3.8295   -5.3233   -2.8423 H       1  UNL1        0.0795
     38 H           4.2025   -6.3778   -4.6083 H       1  UNL1        0.0654
     39 H           5.6768   -7.3509   -6.3224 H       1  UNL1        0.0624
     40 H           6.9539  -10.3260   -3.5457 H       1  UNL1        0.0624
     41 H           5.4866   -9.3552   -1.8242 H       1  UNL1        0.0654
     42 H           2.1981   -4.2250   -3.4437 H       1  UNL1        0.0477
     43 H           0.4410   -4.0329   -3.2067 H       1  UNL1        0.0477
     44 H           1.4518   -1.8112   -3.3860 H       1  UNL1        0.0442
     45 H           2.6442   -2.2145   -2.1268 H       1  UNL1        0.0442
@<TRIPOS>BOND
     1     1     2    1
     2     1    26    1
     3     1    27    1
     4     1    28    1
     5     2     3    1
     6     2     4    1
     7     2     5    1
     8     4    29    1
     9     5     6    1
    10     5    30    1
    11     5    31    1
    12     6    25    1
    13     6     7    1
    14     7     8    1
    15     7    32    1
    16     7    33    1
    17     8     9    1
    18     8    34    1
    19     8    35    1
    20     9    10   am
    21     9    24    1
    22    10    11    2
    23    10    12    1
    24    12    13    1
    25    12    36    1
    26    12    37    1
    27    13    14    1
    28    14    23   ar
    29    14    15   ar
    30    15    16   ar
    31    15    38    1
    32    16    17   ar
    33    16    39    1
    34    17    18    1
    35    17    22   ar
    36    18    19    1
    37    18    20    1
    38    18    21    1
    39    22    23   ar
    40    22    40    1
    41    23    41    1
    42    24    25    1
    43    24    42    1
    44    24    43    1
    45    25    44    1
    46    25    45    1
