@<TRIPOS>MOLECULE
ZINC000000798130
 40 41 0 0 0
SMALL
GASTEIGER

@<TRIPOS>ATOM
      1 C          -0.0262    1.8364    0.0037 C.3     1  UNL1        0.0707
      2 S           0.0027    0.0226    0.0065 S.O2    1  UNL1        0.0290
      3 O           0.8463   -0.4611    1.0426 O.2     1  UNL1       -0.1583
      4 O          -1.3074   -0.4972   -0.1743 O.2     1  UNL1       -0.1583
      5 N           0.7980   -0.3801   -1.3891 N.3     1  UNL1       -0.1813
      6 C           0.0576   -0.5747   -2.6432 C.3     1  UNL1        0.0208
      7 C           0.6764    0.3167   -3.7245 C.3     1  UNL1       -0.0274
      8 C           2.1747    0.0221   -3.8270 C.3     1  UNL1        0.0383
      9 C           2.7805    0.8729   -4.9133 C.2     1  UNL1        0.2204
     10 O           2.0829    1.6393   -5.5434 O.2     1  UNL1       -0.2752
     11 N           4.0975    0.7823   -5.1847 N.am    1  UNL1       -0.2853
     12 C           4.6422    1.4993   -6.2558 C.ar    1  UNL1        0.0334
     13 C           5.6746    0.9520   -7.0062 C.ar    1  UNL1       -0.0399
     14 C           6.2100    1.6623   -8.0627 C.ar    1  UNL1       -0.0484
     15 C           5.7195    2.9173   -8.3733 C.ar    1  UNL1        0.0549
     16 C           6.3064    3.6898   -9.5265 C.3     1  UNL1        0.4174
     17 F           5.6063    3.3825  -10.6981 F       1  UNL1       -0.1659
     18 F           6.2052    5.0611   -9.2689 F       1  UNL1       -0.1659
     19 F           7.6526    3.3429   -9.6832 F       1  UNL1       -0.1659
     20 C           4.6912    3.4649   -7.6284 C.ar    1  UNL1       -0.0484
     21 C           4.1476    2.7573   -6.5742 C.ar    1  UNL1       -0.0399
     22 C           2.8516    0.3415   -2.4921 C.3     1  UNL1       -0.0274
     23 C           2.2581   -0.5437   -1.3981 C.3     1  UNL1        0.0208
     24 H           0.9955    2.2160   -0.0064 H       1  UNL1        0.0479
     25 H          -0.5540    2.1900   -0.8820 H       1  UNL1        0.0479
     26 H          -0.5374    2.1930    0.8979 H       1  UNL1        0.0479
     27 H           0.1239   -1.6190   -2.9484 H       1  UNL1        0.0444
     28 H          -0.9871   -0.3002   -2.4971 H       1  UNL1        0.0444
     29 H           0.1989    0.1112   -4.6825 H       1  UNL1        0.0285
     30 H           0.5288    1.3640   -3.4611 H       1  UNL1        0.0285
     31 H           2.3222   -1.0311   -4.0659 H       1  UNL1        0.0395
     32 H           4.6679    0.2199   -4.6375 H       1  UNL1        0.1548
     33 H           6.0587   -0.0278   -6.7636 H       1  UNL1        0.0636
     34 H           7.0130    1.2373   -8.6467 H       1  UNL1        0.0624
     35 H           4.3102    4.4453   -7.8735 H       1  UNL1        0.0624
     36 H           3.3445    3.1854   -5.9927 H       1  UNL1        0.0636
     37 H           3.9222    0.1536   -2.5729 H       1  UNL1        0.0285
     38 H           2.6834    1.3886   -2.2402 H       1  UNL1        0.0285
     39 H           2.6658   -0.2515   -0.4304 H       1  UNL1        0.0444
     40 H           2.5018   -1.5868   -1.5997 H       1  UNL1        0.0444
@<TRIPOS>BOND
     1     1     2    1
     2     1    24    1
     3     1    25    1
     4     1    26    1
     5     2     3    2
     6     2     4    2
     7     2     5    1
     8     5    23    1
     9     5     6    1
    10     6     7    1
    11     6    27    1
    12     6    28    1
    13     7     8    1
    14     7    29    1
    15     7    30    1
    16     8     9    1
    17     8    22    1
    18     8    31    1
    19     9    10    2
    20     9    11   am
    21    11    12    1
    22    11    32    1
    23    12    21   ar
    24    12    13   ar
    25    13    14   ar
    26    13    33    1
    27    14    15   ar
    28    14    34    1
    29    15    16    1
    30    15    20   ar
    31    16    17    1
    32    16    18    1
    33    16    19    1
    34    20    21   ar
    35    20    35    1
    36    21    36    1
    37    22    23    1
    38    22    37    1
    39    22    38    1
    40    23    39    1
    41    23    40    1
