@<TRIPOS>MOLECULE
ZINC000010662660
 46 48 0 0 0
SMALL
GASTEIGER

@<TRIPOS>ATOM
      1 C          -0.3873    1.8044    0.9901 C.3     1  UNL1       -0.0171
      2 C          -0.5288    0.3224    1.2234 C.ar    1  UNL1        0.1071
      3 N          -0.8379   -0.5805    0.3381 N.ar    1  UNL1       -0.0813
      4 O          -0.8753   -1.6868    0.8247 O.2     1  UNL1       -0.3576
      5 C          -0.5874   -1.6594    2.1335 C.ar    1  UNL1        0.1607
      6 C          -0.5358   -2.8383    3.0708 C.3     1  UNL1       -0.0017
      7 C          -0.3460   -0.3638    2.4460 C.ar    1  UNL1        0.1696
      8 S           0.0852    0.3116    4.0152 S.O2    1  UNL1        0.0660
      9 O          -0.3005    1.6789    3.9833 O.2     1  UNL1       -0.1527
     10 O          -0.3877   -0.6067    4.9910 O.2     1  UNL1       -0.1527
     11 N           1.7379    0.2943    4.1189 N.3     1  UNL1       -0.1734
     12 C           2.4406   -0.8729    4.6701 C.3     1  UNL1        0.0364
     13 C           3.4646   -1.3609    3.6380 C.3     1  UNL1        0.0294
     14 N           4.2550   -0.2096    3.1799 N.am    1  UNL1       -0.2950
     15 C           5.6000   -0.2241    3.2635 C.2     1  UNL1        0.2467
     16 O           6.2466    0.7041    2.8186 O.2     1  UNL1       -0.2700
     17 C           6.2891   -1.3689    3.8962 C.ar    1  UNL1        0.0369
     18 C           5.9976   -2.6728    3.4923 C.ar    1  UNL1       -0.0491
     19 C           6.6445   -3.7366    4.0865 C.ar    1  UNL1       -0.0494
     20 C           7.5801   -3.5132    5.0811 C.ar    1  UNL1        0.0549
     21 C           8.2825   -4.6802    5.7260 C.3     1  UNL1        0.4174
     22 F           9.4514   -4.9719    5.0148 F       1  UNL1       -0.1659
     23 F           8.6091   -4.3557    7.0471 F       1  UNL1       -0.1659
     24 F           7.4391   -5.7963    5.7148 F       1  UNL1       -0.1659
     25 C           7.8740   -2.2232    5.4858 C.ar    1  UNL1       -0.0494
     26 C           7.2382   -1.1503    4.8961 C.ar    1  UNL1       -0.0491
     27 C           3.5523    0.9576    2.6287 C.3     1  UNL1        0.0294
     28 C           2.5285    1.4433    3.6557 C.3     1  UNL1        0.0364
     29 H           0.6418    2.0319    0.7122 H       1  UNL1        0.0294
     30 H          -1.0569    2.1113    0.1866 H       1  UNL1        0.0294
     31 H          -0.6445    2.3421    1.9027 H       1  UNL1        0.0294
     32 H          -0.7730   -3.7496    2.5219 H       1  UNL1        0.0309
     33 H           0.4643   -2.9206    3.4965 H       1  UNL1        0.0309
     34 H          -1.2612   -2.6975    3.8720 H       1  UNL1        0.0309
     35 H           2.9538   -0.5904    5.5893 H       1  UNL1        0.0459
     36 H           1.7235   -1.6671    4.8778 H       1  UNL1        0.0459
     37 H           4.1238   -2.0978    4.0968 H       1  UNL1        0.0478
     38 H           2.9452   -1.8084    2.7906 H       1  UNL1        0.0478
     39 H           5.2670   -2.8485    2.7166 H       1  UNL1        0.0625
     40 H           6.4199   -4.7460    3.7749 H       1  UNL1        0.0623
     41 H           8.6056   -2.0556    6.2624 H       1  UNL1        0.0623
     42 H           7.4687   -0.1438    5.2126 H       1  UNL1        0.0625
     43 H           4.2694    1.7518    2.4211 H       1  UNL1        0.0478
     44 H           3.0391    0.6751    1.7095 H       1  UNL1        0.0478
     45 H           1.8701    2.1801    3.1956 H       1  UNL1        0.0459
     46 H           3.0457    1.8907    4.5045 H       1  UNL1        0.0459
@<TRIPOS>BOND
     1     1     2    1
     2     1    29    1
     3     1    30    1
     4     1    31    1
     5     2     7   ar
     6     2     3   ar
     7     3     4   ar
     8     4     5   ar
     9     5     6    1
    10     5     7   ar
    11     6    32    1
    12     6    33    1
    13     6    34    1
    14     7     8    1
    15     8     9    2
    16     8    10    2
    17     8    11    1
    18    11    28    1
    19    11    12    1
    20    12    13    1
    21    12    35    1
    22    12    36    1
    23    13    14    1
    24    13    37    1
    25    13    38    1
    26    14    15   am
    27    14    27    1
    28    15    16    2
    29    15    17    1
    30    17    26   ar
    31    17    18   ar
    32    18    19   ar
    33    18    39    1
    34    19    20   ar
    35    19    40    1
    36    20    21    1
    37    20    25   ar
    38    21    22    1
    39    21    23    1
    40    21    24    1
    41    25    26   ar
    42    25    41    1
    43    26    42    1
    44    27    28    1
    45    27    43    1
    46    27    44    1
    47    28    45    1
    48    28    46    1
