@<TRIPOS>MOLECULE
ZINC000012622971
 40 41 0 0 0
SMALL
GASTEIGER

@<TRIPOS>ATOM
      1 C           1.4394    0.0664    0.7915 C.3     1  UNL1        0.0817
      2 O           0.8627   -0.9142   -0.1107 O.3     1  UNL1       -0.4679
      3 C          -0.2819   -1.4992    0.2760 C.2     1  UNL1        0.3089
      4 O          -0.8665   -1.0955    1.2533 O.2     1  UNL1       -0.2508
      5 C          -0.8378   -2.6594   -0.5088 C.3     1  UNL1        0.0705
      6 C          -2.2860   -2.9141   -0.0858 C.3     1  UNL1        0.1178
      7 H          -2.4411   -2.5428    0.9272 H       1  UNL1        0.0581
      8 C          -2.5718   -4.3904   -0.1306 C.2     1  UNL1        0.2325
      9 O          -1.7762   -5.1494    0.3812 O.2     1  UNL1       -0.2740
     10 N          -3.6600   -4.9029   -0.7068 N.am    1  UNL1       -0.3127
     11 C          -4.6529   -4.1263   -1.4365 C.3     1  UNL1        0.0261
     12 C          -4.6057   -2.6555   -1.0182 C.3     1  UNL1        0.0369
     13 N          -3.1976   -2.2220   -1.0091 N.3     1  UNL1       -0.1627
     14 S          -2.6630   -1.0091   -2.0017 S.O2    1  UNL1        0.0616
     15 O          -3.7279   -0.0736   -2.1016 O.2     1  UNL1       -0.1528
     16 O          -1.3629   -0.6611   -1.5456 O.2     1  UNL1       -0.1528
     17 C          -2.4575   -1.7026   -3.6084 C.ar    1  UNL1        0.1055
     18 C          -1.3268   -2.4413   -3.9030 C.ar    1  UNL1       -0.0348
     19 C          -1.1656   -2.9854   -5.1635 C.ar    1  UNL1       -0.0483
     20 C          -2.1353   -2.7911   -6.1293 C.ar    1  UNL1        0.0549
     21 C          -1.9593   -3.3837   -7.5037 C.3     1  UNL1        0.4174
     22 F          -2.5186   -4.6657   -7.5338 F       1  UNL1       -0.1659
     23 F          -2.6002   -2.5731   -8.4467 F       1  UNL1       -0.1659
     24 F          -0.5957   -3.4626   -7.8064 F       1  UNL1       -0.1659
     25 C          -3.2666   -2.0535   -5.8344 C.ar    1  UNL1       -0.0483
     26 C          -3.4296   -1.5127   -4.5727 C.ar    1  UNL1       -0.0348
     27 H           2.3952    0.4079    0.3941 H       1  UNL1        0.0661
     28 H           0.7618    0.9147    0.8874 H       1  UNL1        0.0661
     29 H           1.5943   -0.3874    1.7704 H       1  UNL1        0.0661
     30 H          -0.8057   -2.4268   -1.5732 H       1  UNL1        0.0398
     31 H          -0.2403   -3.5498   -0.3133 H       1  UNL1        0.0398
     32 H          -3.7999   -5.8601   -0.6352 H       1  UNL1        0.1488
     33 H          -4.4528   -4.2019   -2.5053 H       1  UNL1        0.0475
     34 H          -5.6451   -4.5268   -1.2287 H       1  UNL1        0.0475
     35 H          -5.1712   -2.0527   -1.7288 H       1  UNL1        0.0459
     36 H          -5.0298   -2.5431   -0.0204 H       1  UNL1        0.0459
     37 H          -0.5692   -2.5932   -3.1484 H       1  UNL1        0.0637
     38 H          -0.2819   -3.5619   -5.3938 H       1  UNL1        0.0624
     39 H          -4.0243   -1.9020   -6.5889 H       1  UNL1        0.0624
     40 H          -4.3135   -0.9364   -4.3423 H       1  UNL1        0.0637
@<TRIPOS>BOND
     1     1     2    1
     2     1    27    1
     3     1    28    1
     4     1    29    1
     5     2     3    1
     6     3     4    2
     7     3     5    1
     8     5     6    1
     9     5    30    1
    10     5    31    1
    11     6     7    1
    12     6    13    1
    13     6     8    1
    14     8     9    2
    15     8    10   am
    16    10    11    1
    17    10    32    1
    18    11    12    1
    19    11    33    1
    20    11    34    1
    21    12    13    1
    22    12    35    1
    23    12    36    1
    24    14    13    1
    25    14    15    2
    26    14    16    2
    27    14    17    1
    28    17    26   ar
    29    17    18   ar
    30    18    19   ar
    31    18    37    1
    32    19    20   ar
    33    19    38    1
    34    20    21    1
    35    20    25   ar
    36    21    22    1
    37    21    23    1
    38    21    24    1
    39    25    26   ar
    40    25    39    1
    41    26    40    1
