@<TRIPOS>MOLECULE
ZINC000409142269
 47 48 0 0 0
SMALL
GASTEIGER

@<TRIPOS>ATOM
      1 C           0.2001    0.2938    0.8175 C.3     1  UNL1        0.0788
      2 O          -0.3822    0.0990   -0.4729 O.3     1  UNL1       -0.4951
      3 C           0.3874   -0.5146   -1.4114 C.ar    1  UNL1        0.1202
      4 C           1.6735   -0.9249   -1.0928 C.ar    1  UNL1       -0.0182
      5 C           2.4555   -1.5485   -2.0451 C.ar    1  UNL1       -0.0356
      6 C           1.9540   -1.7647   -3.3218 C.ar    1  UNL1        0.0519
      7 N           2.7455   -2.3969   -4.2872 N.pl3   1  UNL1       -0.1960
      8 C           3.0865   -3.8142   -4.1413 C.3     1  UNL1        0.1191
      9 H           3.7236   -4.1218   -4.9705 H       1  UNL1        0.0612
     10 C           3.8300   -4.0265   -2.8210 C.3     1  UNL1       -0.0362
     11 C           1.8244   -4.6375   -4.1451 C.2     1  UNL1        0.2392
     12 O           0.7428   -4.0896   -4.1101 O.2     1  UNL1       -0.2734
     13 N           1.8973   -5.9826   -4.1873 N.am    1  UNL1       -0.2827
     14 C           0.7263   -6.7448   -4.2719 C.ar    1  UNL1        0.0524
     15 C          -0.4665   -6.2457   -3.7668 C.ar    1  UNL1       -0.0274
     16 C          -1.6208   -7.0001   -3.8522 C.ar    1  UNL1        0.0566
     17 C          -2.9160   -6.4583   -3.3045 C.3     1  UNL1        0.4175
     18 F          -3.5851   -5.7475   -4.3066 F       1  UNL1       -0.1659
     19 F          -3.7184   -7.5188   -2.8699 F       1  UNL1       -0.1659
     20 F          -2.6469   -5.6058   -2.2284 F       1  UNL1       -0.1659
     21 C          -1.5895   -8.2511   -4.4399 C.ar    1  UNL1       -0.0486
     22 C          -0.4030   -8.7522   -4.9440 C.ar    1  UNL1       -0.0411
     23 C           0.7540   -8.0006   -4.8670 C.ar    1  UNL1        0.0621
     24 CL          2.2429   -8.6296   -5.5003 Cl      1  UNL1       -0.0816
     25 S           3.2968   -1.5430   -5.5946 S.O2    1  UNL1        0.0432
     26 C           4.8925   -0.8696   -5.0553 C.3     1  UNL1        0.0738
     27 O           3.4858   -2.5274   -6.6018 O.2     1  UNL1       -0.1552
     28 O           2.3454   -0.5003   -5.7587 O.2     1  UNL1       -0.1552
     29 C           0.6663   -1.3536   -3.6398 C.ar    1  UNL1       -0.0356
     30 C          -0.1163   -0.7349   -2.6848 C.ar    1  UNL1       -0.0182
     31 H           0.4682   -0.6725    1.2447 H       1  UNL1        0.0660
     32 H           1.0942    0.9101    0.7233 H       1  UNL1        0.0660
     33 H          -0.5179    0.7923    1.4687 H       1  UNL1        0.0660
     34 H           2.0635   -0.7563   -0.0999 H       1  UNL1        0.0655
     35 H           3.4570   -1.8676   -1.7971 H       1  UNL1        0.0638
     36 H           4.6636   -3.3271   -2.7569 H       1  UNL1        0.0253
     37 H           3.1477   -3.8559   -1.9883 H       1  UNL1        0.0253
     38 H           4.2084   -5.0478   -2.7773 H       1  UNL1        0.0253
     39 H           2.7614   -6.4226   -4.1590 H       1  UNL1        0.1549
     40 H          -0.4921   -5.2687   -3.3072 H       1  UNL1        0.0642
     41 H          -2.4934   -8.8385   -4.5053 H       1  UNL1        0.0623
     42 H          -0.3818   -9.7300   -5.4022 H       1  UNL1        0.0633
     43 H           5.6081   -1.6829   -4.9351 H       1  UNL1        0.0482
     44 H           5.2622   -0.1679   -5.8030 H       1  UNL1        0.0482
     45 H           4.7660   -0.3533   -4.1037 H       1  UNL1        0.0482
     46 H           0.2754   -1.5213   -4.6326 H       1  UNL1        0.0638
     47 H          -1.1179   -0.4154   -2.9318 H       1  UNL1        0.0655
@<TRIPOS>BOND
     1     1     2    1
     2     1    31    1
     3     1    32    1
     4     1    33    1
     5     2     3    1
     6     3    30   ar
     7     3     4   ar
     8     4     5   ar
     9     4    34    1
    10     5     6   ar
    11     5    35    1
    12     6     7    1
    13     6    29   ar
    14     7     8    1
    15    25     7    1
    16     8     9    1
    17     8    10    1
    18     8    11    1
    19    10    36    1
    20    10    37    1
    21    10    38    1
    22    11    12    2
    23    11    13   am
    24    13    14    1
    25    13    39    1
    26    14    23   ar
    27    14    15   ar
    28    15    16   ar
    29    15    40    1
    30    16    17    1
    31    16    21   ar
    32    17    18    1
    33    17    19    1
    34    17    20    1
    35    21    22   ar
    36    21    41    1
    37    22    23   ar
    38    22    42    1
    39    23    24    1
    40    25    26    1
    41    25    27    2
    42    25    28    2
    43    26    43    1
    44    26    44    1
    45    26    45    1
    46    29    30   ar
    47    29    46    1
    48    30    47    1
