@<TRIPOS>MOLECULE
ZINC000028207335
 46 46 0 0 0
SMALL
GASTEIGER

@<TRIPOS>ATOM
      1 C          -0.0187    1.5258    0.0104 C.3     1  UNL1       -0.0652
      2 C           0.0021   -0.0041    0.0020 C.3     1  UNL1       -0.0542
      3 C           0.7182   -0.4975   -1.2568 C.3     1  UNL1       -0.0350
      4 C           0.7390   -2.0273   -1.2652 C.3     1  UNL1        0.0204
      5 H           1.1870   -2.3897   -0.3400 H       1  UNL1        0.0495
      6 C           1.5619   -2.5197   -2.4574 C.3     1  UNL1       -0.0466
      7 N          -0.6313   -2.5337   -1.3752 N.am    1  UNL1       -0.3099
      8 C          -0.9349   -3.7625   -0.9121 C.2     1  UNL1        0.2509
      9 O          -0.0737   -4.4490   -0.4043 O.2     1  UNL1       -0.2721
     10 C          -2.3445   -4.2833   -1.0253 C.3     1  UNL1        0.1651
     11 O          -2.4129   -5.5975   -0.4681 O.3     1  UNL1       -0.4828
     12 C          -3.6232   -6.2151   -0.4909 C.ar    1  UNL1        0.1213
     13 C          -4.7212   -5.5718   -1.0435 C.ar    1  UNL1       -0.0181
     14 C          -5.9503   -6.2019   -1.0660 C.ar    1  UNL1       -0.0319
     15 C          -6.0869   -7.4724   -0.5379 C.ar    1  UNL1        0.1057
     16 S          -7.6562   -8.2732   -0.5675 S.O2    1  UNL1        0.0604
     17 O          -7.6336   -9.2389    0.4747 O.2     1  UNL1       -0.1529
     18 O          -8.6310   -7.2427   -0.6512 O.2     1  UNL1       -0.1529
     19 N          -7.7477   -9.1200   -1.9877 N.3     1  UNL1       -0.1827
     20 C          -7.2819  -10.5078   -2.0443 C.3     1  UNL1        0.0086
     21 C          -8.2945   -8.4812   -3.1874 C.3     1  UNL1        0.0086
     22 C          -4.9941   -8.1158    0.0130 C.ar    1  UNL1       -0.0319
     23 C          -3.7616   -7.4921    0.0331 C.ar    1  UNL1       -0.0181
     24 H           1.0039    1.9031    0.0027 H       1  UNL1        0.0230
     25 H          -0.5459    1.8868   -0.8726 H       1  UNL1        0.0230
     26 H          -0.5289    1.8773    0.9072 H       1  UNL1        0.0230
     27 H           0.5293   -0.3651    0.8851 H       1  UNL1        0.0263
     28 H          -1.0205   -0.3814    0.0098 H       1  UNL1        0.0263
     29 H           0.1910   -0.1364   -2.1398 H       1  UNL1        0.0283
     30 H           1.7408   -0.1202   -1.2645 H       1  UNL1        0.0283
     31 H           1.1138   -2.1573   -3.3826 H       1  UNL1        0.0247
     32 H           2.5814   -2.1429   -2.3755 H       1  UNL1        0.0247
     33 H           1.5766   -3.6095   -2.4634 H       1  UNL1        0.0247
     34 H          -1.3201   -1.9846   -1.7814 H       1  UNL1        0.1491
     35 H          -3.0206   -3.6229   -0.4824 H       1  UNL1        0.0795
     36 H          -2.6358   -4.3182   -2.0751 H       1  UNL1        0.0795
     37 H          -4.6152   -4.5791   -1.4555 H       1  UNL1        0.0655
     38 H          -6.8054   -5.7016   -1.4960 H       1  UNL1        0.0638
     39 H          -8.1070  -11.1781   -1.8034 H       1  UNL1        0.0408
     40 H          -6.9163  -10.7276   -3.0474 H       1  UNL1        0.0408
     41 H          -6.4760  -10.6502   -1.3245 H       1  UNL1        0.0408
     42 H          -8.5859   -7.4574   -2.9531 H       1  UNL1        0.0408
     43 H          -7.5376   -8.4731   -3.9717 H       1  UNL1        0.0408
     44 H          -9.1667   -9.0379   -3.5299 H       1  UNL1        0.0408
     45 H          -5.1033   -9.1084    0.4246 H       1  UNL1        0.0638
     46 H          -2.9083   -7.9951    0.4635 H       1  UNL1        0.0655
@<TRIPOS>BOND
     1     1     2    1
     2     1    24    1
     3     1    25    1
     4     1    26    1
     5     2     3    1
     6     2    27    1
     7     2    28    1
     8     3     4    1
     9     3    29    1
    10     3    30    1
    11     4     5    1
    12     4     6    1
    13     4     7    1
    14     6    31    1
    15     6    32    1
    16     6    33    1
    17     7     8   am
    18     7    34    1
    19     8     9    2
    20     8    10    1
    21    10    11    1
    22    10    35    1
    23    10    36    1
    24    11    12    1
    25    12    23   ar
    26    12    13   ar
    27    13    14   ar
    28    13    37    1
    29    14    15   ar
    30    14    38    1
    31    15    16    1
    32    15    22   ar
    33    16    17    2
    34    16    18    2
    35    16    19    1
    36    19    20    1
    37    19    21    1
    38    20    39    1
    39    20    40    1
    40    20    41    1
    41    21    42    1
    42    21    43    1
    43    21    44    1
    44    22    23   ar
    45    22    45    1
    46    23    46    1
