@<TRIPOS>MOLECULE
ZINC000222882065
 50 51 0 0 0
SMALL
GASTEIGER

@<TRIPOS>ATOM
      1 C          -0.0499    1.5014    0.0051 C.3     1  UNL1        0.0086
      2 N          -0.0212    0.0367    0.0021 N.3     1  UNL1       -0.1827
      3 C           1.2617   -0.6708   -0.0090 C.3     1  UNL1        0.0086
      4 S          -1.4387   -0.8193    0.0113 S.O2    1  UNL1        0.0604
      5 O          -1.1321   -2.0976    0.5510 O.2     1  UNL1       -0.1529
      6 O          -2.4240    0.0421    0.5648 O.2     1  UNL1       -0.1529
      7 C          -1.8980   -1.0857   -1.6688 C.ar    1  UNL1        0.1055
      8 C          -2.6923   -0.1626   -2.3230 C.ar    1  UNL1       -0.0351
      9 C          -3.0526   -0.3716   -3.6411 C.ar    1  UNL1       -0.0567
     10 C          -2.6183   -1.5035   -4.3052 C.ar    1  UNL1       -0.0468
     11 C          -3.0115   -1.7317   -5.7420 C.3     1  UNL1       -0.0194
     12 C          -1.9653   -1.1011   -6.6633 C.3     1  UNL1        0.0282
     13 C          -2.3585   -1.3292   -8.1001 C.2     1  UNL1        0.2175
     14 O          -3.3754   -1.9364   -8.3615 O.2     1  UNL1       -0.2755
     15 N          -1.5802   -0.8585   -9.0946 N.am    1  UNL1       -0.2855
     16 C          -1.8925   -1.1528  -10.4265 C.ar    1  UNL1        0.0334
     17 C          -0.8764   -1.3584  -11.3504 C.ar    1  UNL1       -0.0402
     18 C          -1.1880   -1.6486  -12.6642 C.ar    1  UNL1       -0.0564
     19 C          -2.5102   -1.7341  -13.0601 C.ar    1  UNL1       -0.0385
     20 C          -2.8466   -2.0504  -14.4946 C.3     1  UNL1        0.0489
     21 C          -2.9609   -3.5433  -14.6663 C.2     1  UNL1        0.2148
     22 N          -3.2570   -4.0619  -15.8745 N.am    1  UNL1       -0.3291
     23 O          -2.7863   -4.2779  -13.7173 O.2     1  UNL1       -0.2757
     24 C          -3.5244   -1.5303  -12.1424 C.ar    1  UNL1       -0.0564
     25 C          -3.2194   -1.2454  -10.8259 C.ar    1  UNL1       -0.0402
     26 C          -1.8229   -2.4260   -3.6514 C.ar    1  UNL1       -0.0567
     27 C          -1.4594   -2.2151   -2.3345 C.ar    1  UNL1       -0.0351
     28 H           0.9704    1.8848   -0.0019 H       1  UNL1        0.0408
     29 H          -0.5775    1.8562   -0.8802 H       1  UNL1        0.0408
     30 H          -0.5640    1.8529    0.8997 H       1  UNL1        0.0408
     31 H           1.5876   -0.8482    1.0159 H       1  UNL1        0.0408
     32 H           1.1461   -1.6246   -0.5237 H       1  UNL1        0.0408
     33 H           2.0057   -0.0660   -0.5273 H       1  UNL1        0.0408
     34 H          -3.0316    0.7217   -1.8041 H       1  UNL1        0.0637
     35 H          -3.6737    0.3492   -4.1519 H       1  UNL1        0.0621
     36 H          -3.0694   -2.8025   -5.9372 H       1  UNL1        0.0318
     37 H          -3.9833   -1.2751   -5.9296 H       1  UNL1        0.0318
     38 H          -1.9074   -0.0303   -6.4681 H       1  UNL1        0.0362
     39 H          -0.9935   -1.5577   -6.4757 H       1  UNL1        0.0362
     40 H          -0.8035   -0.3158   -8.8872 H       1  UNL1        0.1548
     41 H           0.1564   -1.2911  -11.0420 H       1  UNL1        0.0636
     42 H          -0.3982   -1.8086  -13.3833 H       1  UNL1        0.0621
     43 H          -3.7945   -1.5809  -14.7576 H       1  UNL1        0.0407
     44 H          -2.0595   -1.6691  -15.1450 H       1  UNL1        0.0407
     45 H          -3.3966   -3.4743  -16.6336 H       1  UNL1        0.1449
     46 H          -3.3305   -5.0228  -15.9851 H       1  UNL1        0.1449
     47 H          -4.5560   -1.5977  -12.4547 H       1  UNL1        0.0621
     48 H          -4.0119   -1.0863  -10.1096 H       1  UNL1        0.0636
     49 H          -1.4832   -3.3101   -4.1704 H       1  UNL1        0.0621
     50 H          -0.8380   -2.9357   -1.8238 H       1  UNL1        0.0637
@<TRIPOS>BOND
     1     1     2    1
     2     1    28    1
     3     1    29    1
     4     1    30    1
     5     2     3    1
     6     4     2    1
     7     3    31    1
     8     3    32    1
     9     3    33    1
    10     4     5    2
    11     4     6    2
    12     4     7    1
    13     7    27   ar
    14     7     8   ar
    15     8     9   ar
    16     8    34    1
    17     9    10   ar
    18     9    35    1
    19    10    11    1
    20    10    26   ar
    21    11    12    1
    22    11    36    1
    23    11    37    1
    24    12    13    1
    25    12    38    1
    26    12    39    1
    27    13    14    2
    28    13    15   am
    29    15    16    1
    30    15    40    1
    31    16    25   ar
    32    16    17   ar
    33    17    18   ar
    34    17    41    1
    35    18    19   ar
    36    18    42    1
    37    19    20    1
    38    19    24   ar
    39    20    21    1
    40    20    43    1
    41    20    44    1
    42    21    22   am
    43    21    23    2
    44    22    45    1
    45    22    46    1
    46    24    25   ar
    47    24    47    1
    48    25    48    1
    49    26    27   ar
    50    26    49    1
    51    27    50    1
