@<TRIPOS>MOLECULE
ZINC000006205261
 55 56 0 0 0
SMALL
GASTEIGER

@<TRIPOS>ATOM
      1 C          -0.0187    1.5258    0.0104 C.3     1  UNL1       -0.0507
      2 C           0.0021   -0.0041    0.0020 C.3     1  UNL1        0.0177
      3 N           0.7106   -0.4894    1.1889 N.3     1  UNL1       -0.1771
      4 C          -0.0062   -0.6460    2.4569 C.3     1  UNL1        0.0177
      5 C          -0.6935   -2.0126    2.4888 C.3     1  UNL1       -0.0507
      6 S           2.3218   -0.8609    1.0971 S.O2    1  UNL1        0.0609
      7 O           2.5823   -1.7795    2.1496 O.2     1  UNL1       -0.1528
      8 O           2.5905   -1.1471   -0.2686 O.2     1  UNL1       -0.1528
      9 C           3.2182    0.6060    1.4837 C.ar    1  UNL1        0.1079
     10 C           3.5682    1.4863    0.4769 C.ar    1  UNL1       -0.0318
     11 C           4.2714    2.6370    0.7774 C.ar    1  UNL1       -0.0158
     12 C           4.6259    2.9088    2.0906 C.ar    1  UNL1        0.1514
     13 O           5.3172    4.0402    2.3888 O.3     1  UNL1       -0.4805
     14 C           5.6461    4.9054    1.3000 C.3     1  UNL1        0.1652
     15 C           6.4063    6.0988    1.8187 C.2     1  UNL1        0.2509
     16 O           6.6431    6.1985    3.0040 O.2     1  UNL1       -0.2721
     17 N           6.8231    7.0552    0.9654 N.am    1  UNL1       -0.3097
     18 C           7.5621    8.2153    1.4697 C.3     1  UNL1        0.0232
     19 C           9.0482    7.8671    1.5744 C.3     1  UNL1       -0.0345
     20 C           9.8200    9.0786    2.1010 C.3     1  UNL1       -0.0514
     21 C           9.6385   10.2558    1.1407 C.3     1  UNL1       -0.0529
     22 C           8.1523   10.6040    1.0359 C.3     1  UNL1       -0.0514
     23 C           7.3805    9.3924    0.5093 C.3     1  UNL1       -0.0345
     24 C           4.2730    2.0239    3.0994 C.ar    1  UNL1        0.1694
     25 N           4.6496    2.3108    4.5016 N.pl3   1  UNL1        0.0601
     26 O           4.3396    1.5337    5.3867 O.2     1  UNL1       -0.1260
     27 O           5.2696    3.3242    4.7705 O.2     1  UNL1       -0.1260
     28 C           3.5654    0.8775    2.7945 C.ar    1  UNL1       -0.0015
     29 H           1.0039    1.9031    0.0027 H       1  UNL1        0.0243
     30 H          -0.5459    1.8868   -0.8726 H       1  UNL1        0.0243
     31 H          -0.5289    1.8773    0.9072 H       1  UNL1        0.0243
     32 H          -1.0205   -0.3814    0.0098 H       1  UNL1        0.0441
     33 H           0.5123   -0.3556   -0.8948 H       1  UNL1        0.0441
     34 H           0.6997   -0.5749    3.2845 H       1  UNL1        0.0441
     35 H          -0.7557    0.1399    2.5501 H       1  UNL1        0.0441
     36 H          -1.3993   -2.0837    1.6613 H       1  UNL1        0.0243
     37 H           0.0560   -2.7985    2.3957 H       1  UNL1        0.0243
     38 H          -1.2268   -2.1291    3.4323 H       1  UNL1        0.0243
     39 H           3.2920    1.2742   -0.5454 H       1  UNL1        0.0638
     40 H           4.5453    3.3241   -0.0096 H       1  UNL1        0.0655
     41 H           6.2629    4.3662    0.5810 H       1  UNL1        0.0795
     42 H           4.7305    5.2414    0.8135 H       1  UNL1        0.0795
     43 H           6.6337    6.9754    0.0175 H       1  UNL1        0.1491
     44 H           7.1825    8.4879    2.4544 H       1  UNL1        0.0498
     45 H           9.1776    7.0285    2.2586 H       1  UNL1        0.0283
     46 H           9.4278    7.5944    0.5897 H       1  UNL1        0.0283
     47 H           9.4405    9.3513    3.0858 H       1  UNL1        0.0266
     48 H          10.8788    8.8306    2.1757 H       1  UNL1        0.0266
     49 H          10.1883   11.1189    1.5158 H       1  UNL1        0.0265
     50 H          10.0181    9.9831    0.1559 H       1  UNL1        0.0265
     51 H           7.7727   10.8766    2.0206 H       1  UNL1        0.0266
     52 H           8.0230   11.4426    0.3517 H       1  UNL1        0.0266
     53 H           7.7601    9.1198   -0.4754 H       1  UNL1        0.0283
     54 H           6.3218    9.6404    0.4347 H       1  UNL1        0.0283
     55 H           3.2905    0.1884    3.5793 H       1  UNL1        0.0661
@<TRIPOS>BOND
     1     1     2    1
     2     1    29    1
     3     1    30    1
     4     1    31    1
     5     2     3    1
     6     2    32    1
     7     2    33    1
     8     3     4    1
     9     6     3    1
    10     4     5    1
    11     4    34    1
    12     4    35    1
    13     5    36    1
    14     5    37    1
    15     5    38    1
    16     6     7    2
    17     6     8    2
    18     6     9    1
    19     9    28   ar
    20     9    10   ar
    21    10    11   ar
    22    10    39    1
    23    11    12   ar
    24    11    40    1
    25    12    13    1
    26    12    24   ar
    27    13    14    1
    28    14    15    1
    29    14    41    1
    30    14    42    1
    31    15    16    2
    32    15    17   am
    33    17    18    1
    34    17    43    1
    35    18    23    1
    36    18    19    1
    37    18    44    1
    38    19    20    1
    39    19    45    1
    40    19    46    1
    41    20    21    1
    42    20    47    1
    43    20    48    1
    44    21    22    1
    45    21    49    1
    46    21    50    1
    47    22    23    1
    48    22    51    1
    49    22    52    1
    50    23    53    1
    51    23    54    1
    52    24    25    1
    53    24    28   ar
    54    25    26    2
    55    25    27    2
    56    28    55    1
