@<TRIPOS>MOLECULE
ZINC000001368120
 51 53 0 0 0
SMALL
GASTEIGER

@<TRIPOS>ATOM
      1 C          -0.0184    1.5028    0.0103 C.3     1  UNL1       -0.0397
      2 C           0.0021   -0.0041    0.0020 C.ar    1  UNL1       -0.0503
      3 C           0.0057   -0.6887   -1.1989 C.ar    1  UNL1       -0.0570
      4 C           0.0245   -2.0709   -1.2065 C.ar    1  UNL1       -0.0351
      5 C           0.0400   -2.7685   -0.0132 C.ar    1  UNL1        0.1055
      6 S           0.0633   -4.5303   -0.0229 S.O2    1  UNL1        0.0609
      7 O          -0.4690   -4.9455    1.2275 O.2     1  UNL1       -0.1528
      8 O          -0.4824   -4.9319   -1.2719 O.2     1  UNL1       -0.1528
      9 N           1.6514   -4.9995   -0.0340 N.3     1  UNL1       -0.1753
     10 C           2.3582   -5.1973   -1.2509 C.3     1  UNL1        0.0218
     11 C           2.1579   -6.6062   -1.8989 C.3     1  UNL1       -0.0241
     12 C           2.1061   -7.6494   -0.7353 C.3     1  UNL1        0.0218
     13 N           3.0003   -7.3853    0.3371 N.3     1  UNL1       -0.1753
     14 S           4.5849   -7.8628    0.2792 S.O2    1  UNL1        0.0609
     15 O           5.0240   -7.9606    1.6271 O.2     1  UNL1       -0.1528
     16 O           4.6441   -8.9465   -0.6380 O.2     1  UNL1       -0.1528
     17 C           5.5006   -6.5448   -0.4481 C.ar    1  UNL1        0.1055
     18 C           5.6730   -6.4970   -1.8188 C.ar    1  UNL1       -0.0348
     19 C           6.3914   -5.4629   -2.3894 C.ar    1  UNL1       -0.0483
     20 C           6.9370   -4.4765   -1.5893 C.ar    1  UNL1        0.0549
     21 C           7.7206   -3.3495   -2.2113 C.3     1  UNL1        0.4174
     22 F           6.8552   -2.2943   -2.5194 F       1  UNL1       -0.1659
     23 F           8.6946   -2.9059   -1.3103 F       1  UNL1       -0.1659
     24 F           8.3393   -3.8020   -3.3816 F       1  UNL1       -0.1659
     25 C           6.7634   -4.5236   -0.2187 C.ar    1  UNL1       -0.0483
     26 C           6.0418   -5.5555    0.3516 C.ar    1  UNL1       -0.0348
     27 C           2.4507   -6.6614    1.5122 C.3     1  UNL1        0.0349
     28 C           2.4020   -5.2261    1.2278 C.3     1  UNL1        0.0349
     29 C           0.0378   -2.0839    1.1877 C.ar    1  UNL1       -0.0351
     30 C           0.0229   -0.7016    1.1953 C.ar    1  UNL1       -0.0570
     31 H           1.0042    1.8801    0.0026 H       1  UNL1        0.0278
     32 H          -0.5455    1.8639   -0.8728 H       1  UNL1        0.0278
     33 H          -0.5286    1.8543    0.9071 H       1  UNL1        0.0278
     34 H          -0.0064   -0.1436   -2.1312 H       1  UNL1        0.0621
     35 H           0.0266   -2.6057   -2.1448 H       1  UNL1        0.0637
     36 H           2.0345   -4.4399   -1.9649 H       1  UNL1        0.0444
     37 H           3.4216   -5.0535   -1.0596 H       1  UNL1        0.0444
     38 H           1.2226   -6.6276   -2.4582 H       1  UNL1        0.0291
     39 H           2.9930   -6.8315   -2.5622 H       1  UNL1        0.0291
     40 H           1.0907   -7.6747   -0.3396 H       1  UNL1        0.0444
     41 H           2.3377   -8.6332   -1.1434 H       1  UNL1        0.0444
     42 H           5.2468   -7.2677   -2.4439 H       1  UNL1        0.0637
     43 H           6.5268   -5.4259   -3.4602 H       1  UNL1        0.0624
     44 H           7.1893   -3.7527    0.4064 H       1  UNL1        0.0624
     45 H           5.9061   -5.5923    1.4224 H       1  UNL1        0.0637
     46 H           1.4452   -7.0247    1.7244 H       1  UNL1        0.0457
     47 H           3.0896   -6.8369    2.3777 H       1  UNL1        0.0457
     48 H           3.4169   -4.8420    1.1248 H       1  UNL1        0.0457
     49 H           1.9010   -4.7107    2.0473 H       1  UNL1        0.0457
     50 H           0.0503   -2.6289    2.1200 H       1  UNL1        0.0637
     51 H           0.0211   -0.1667    2.1335 H       1  UNL1        0.0621
@<TRIPOS>BOND
     1     1     2    1
     2     1    31    1
     3     1    32    1
     4     1    33    1
     5     2    30   ar
     6     2     3   ar
     7     3     4   ar
     8     3    34    1
     9     4     5   ar
    10     4    35    1
    11     5     6    1
    12     5    29   ar
    13     6     7    2
    14     6     8    2
    15     6     9    1
    16     9    28    1
    17     9    10    1
    18    10    11    1
    19    10    36    1
    20    10    37    1
    21    11    12    1
    22    11    38    1
    23    11    39    1
    24    12    13    1
    25    12    40    1
    26    12    41    1
    27    14    13    1
    28    13    27    1
    29    14    15    2
    30    14    16    2
    31    14    17    1
    32    17    26   ar
    33    17    18   ar
    34    18    19   ar
    35    18    42    1
    36    19    20   ar
    37    19    43    1
    38    20    21    1
    39    20    25   ar
    40    21    22    1
    41    21    23    1
    42    21    24    1
    43    25    26   ar
    44    25    44    1
    45    26    45    1
    46    27    28    1
    47    27    46    1
    48    27    47    1
    49    28    48    1
    50    28    49    1
    51    29    30   ar
    52    29    50    1
    53    30    51    1
