@<TRIPOS>MOLECULE
ZINC000408613786
 69 71 0 0 0
SMALL
GASTEIGER

@<TRIPOS>ATOM
      1 C          -2.2860  -12.3803    5.7559 C.3     1  UNL1       -0.0307
      2 C          -1.4846  -11.1342    5.3740 C.3     1  UNL1        0.0868
      3 O          -1.6280  -10.8862    3.9740 O.3     1  UNL1       -0.4920
      4 C          -0.9741   -9.8075    3.4684 C.ar    1  UNL1        0.1235
      5 C          -0.2058   -9.0075    4.3014 C.ar    1  UNL1       -0.0178
      6 C           0.4583   -7.9116    3.7848 C.ar    1  UNL1       -0.0319
      7 C           0.3572   -7.6117    2.4391 C.ar    1  UNL1        0.1060
      8 S           1.2049   -6.2131    1.7835 S.O2    1  UNL1        0.0616
      9 O           0.4389   -5.7632    0.6744 O.2     1  UNL1       -0.1528
     10 O           1.5288   -5.3845    2.8916 O.2     1  UNL1       -0.1528
     11 N           2.6437   -6.7556    1.1689 N.3     1  UNL1       -0.1635
     12 C           3.8012   -6.9213    2.0515 C.3     1  UNL1        0.0971
     13 C           3.8747   -8.3516    2.5204 C.2     1  UNL1        0.2290
     14 O           3.0421   -9.1536    2.1536 O.2     1  UNL1       -0.2743
     15 N           4.8656   -8.7396    3.3475 N.am    1  UNL1       -0.3116
     16 C           4.9371  -10.1300    3.8034 C.3     1  UNL1        0.0206
     17 H           4.5992  -10.7917    3.0058 H       1  UNL1        0.0495
     18 C           4.0409  -10.3111    5.0302 C.3     1  UNL1       -0.0466
     19 C           6.3820  -10.4722    4.1723 C.3     1  UNL1       -0.0308
     20 C           7.2564  -10.4120    2.9182 C.3     1  UNL1       -0.0260
     21 C           8.6796  -10.7490    3.2815 C.ar    1  UNL1       -0.0473
     22 C           9.5515   -9.7465    3.6631 C.ar    1  UNL1       -0.0586
     23 C          10.8569  -10.0556    3.9964 C.ar    1  UNL1       -0.0615
     24 C          11.2904  -11.3674    3.9485 C.ar    1  UNL1       -0.0617
     25 C          10.4182  -12.3701    3.5678 C.ar    1  UNL1       -0.0615
     26 C           9.1116  -12.0614    3.2387 C.ar    1  UNL1       -0.0586
     27 C           2.7590   -7.0699   -0.2573 C.3     1  UNL1        0.0460
     28 C           3.3279   -5.8817   -0.9891 C.ar    1  UNL1       -0.0317
     29 C           2.4810   -4.9748   -1.5984 C.ar    1  UNL1       -0.0573
     30 C           3.0029   -3.8849   -2.2696 C.ar    1  UNL1       -0.0615
     31 C           4.3716   -3.7016   -2.3313 C.ar    1  UNL1       -0.0617
     32 C           5.2185   -4.6080   -1.7213 C.ar    1  UNL1       -0.0615
     33 C           4.6965   -5.6956   -1.0464 C.ar    1  UNL1       -0.0573
     34 C          -0.4078   -8.4079    1.6065 C.ar    1  UNL1       -0.0290
     35 C          -1.0694   -9.5077    2.1170 C.ar    1  UNL1       -0.0069
     36 C          -1.9025  -10.3752    1.2090 C.3     1  UNL1       -0.0362
     37 H          -1.9139  -13.2377    5.1951 H       1  UNL1        0.0262
     38 H          -2.1767  -12.5695    6.8238 H       1  UNL1        0.0262
     39 H          -3.3385  -12.2216    5.5210 H       1  UNL1        0.0262
     40 H          -1.8568  -10.2769    5.9348 H       1  UNL1        0.0694
     41 H          -0.4321  -11.2930    5.6090 H       1  UNL1        0.0694
     42 H          -0.1271   -9.2410    5.3529 H       1  UNL1        0.0655
     43 H           1.0567   -7.2885    4.4329 H       1  UNL1        0.0638
     44 H           4.7118   -6.6701    1.5075 H       1  UNL1        0.0539
     45 H           3.6988   -6.2613    2.9129 H       1  UNL1        0.0539
     46 H           5.5315   -8.0981    3.6409 H       1  UNL1        0.1490
     47 H           4.3788   -9.6494    5.8278 H       1  UNL1        0.0247
     48 H           3.0116  -10.0673    4.7674 H       1  UNL1        0.0247
     49 H           4.0941  -11.3456    5.3694 H       1  UNL1        0.0247
     50 H           6.7493   -9.7548    4.9061 H       1  UNL1        0.0286
     51 H           6.4211  -11.4763    4.5946 H       1  UNL1        0.0286
     52 H           6.8891  -11.1294    2.1844 H       1  UNL1        0.0314
     53 H           7.2173   -9.4079    2.4959 H       1  UNL1        0.0314
     54 H           9.2128   -8.7216    3.7005 H       1  UNL1        0.0620
     55 H          11.5383   -9.2723    4.2938 H       1  UNL1        0.0618
     56 H          12.3105  -11.6088    4.2082 H       1  UNL1        0.0618
     57 H          10.7570  -13.3949    3.5301 H       1  UNL1        0.0618
     58 H           8.4302  -12.8448    2.9413 H       1  UNL1        0.0620
     59 H           3.4191   -7.9274   -0.3882 H       1  UNL1        0.0493
     60 H           1.7733   -7.3057   -0.6583 H       1  UNL1        0.0493
     61 H           1.4116   -5.1180   -1.5502 H       1  UNL1        0.0621
     62 H           2.3412   -3.1768   -2.7462 H       1  UNL1        0.0618
     63 H           4.7794   -2.8505   -2.8564 H       1  UNL1        0.0618
     64 H           6.2879   -4.4650   -1.7698 H       1  UNL1        0.0618
     65 H           5.3582   -6.4038   -0.5698 H       1  UNL1        0.0621
     66 H          -0.4850   -8.1718    0.5554 H       1  UNL1        0.0641
     67 H          -1.2814  -11.1694    0.7949 H       1  UNL1        0.0279
     68 H          -2.7224  -10.8141    1.7775 H       1  UNL1        0.0279
     69 H          -2.3063   -9.7694    0.3978 H       1  UNL1        0.0279
@<TRIPOS>BOND
     1     1     2    1
     2     1    37    1
     3     1    38    1
     4     1    39    1
     5     2     3    1
     6     2    40    1
     7     2    41    1
     8     3     4    1
     9     4    35   ar
    10     4     5   ar
    11     5     6   ar
    12     5    42    1
    13     6     7   ar
    14     6    43    1
    15     7     8    1
    16     7    34   ar
    17     8     9    2
    18     8    10    2
    19     8    11    1
    20    11    12    1
    21    11    27    1
    22    12    13    1
    23    12    44    1
    24    12    45    1
    25    13    14    2
    26    13    15   am
    27    15    16    1
    28    15    46    1
    29    16    17    1
    30    16    18    1
    31    16    19    1
    32    18    47    1
    33    18    48    1
    34    18    49    1
    35    19    20    1
    36    19    50    1
    37    19    51    1
    38    20    21    1
    39    20    52    1
    40    20    53    1
    41    21    26   ar
    42    21    22   ar
    43    22    23   ar
    44    22    54    1
    45    23    24   ar
    46    23    55    1
    47    24    25   ar
    48    24    56    1
    49    25    26   ar
    50    25    57    1
    51    26    58    1
    52    27    28    1
    53    27    59    1
    54    27    60    1
    55    28    33   ar
    56    28    29   ar
    57    29    30   ar
    58    29    61    1
    59    30    31   ar
    60    30    62    1
    61    31    32   ar
    62    31    63    1
    63    32    33   ar
    64    32    64    1
    65    33    65    1
    66    34    35   ar
    67    34    66    1
    68    35    36    1
    69    36    67    1
    70    36    68    1
    71    36    69    1
