@<TRIPOS>MOLECULE
ZINC000021886691
 59 60 0 0 0
SMALL
GASTEIGER

@<TRIPOS>ATOM
      1 C          -0.0187    1.5258    0.0104 C.3     1  UNL1       -0.0507
      2 C           0.0021   -0.0041    0.0020 C.3     1  UNL1        0.0177
      3 N          -1.3723   -0.5112    0.0124 N.3     1  UNL1       -0.1771
      4 C          -2.1099   -0.6542   -1.2453 C.3     1  UNL1        0.0177
      5 C          -1.7727   -2.0031   -1.8836 C.3     1  UNL1       -0.0507
      6 S          -2.0922   -0.9227    1.4458 S.O2    1  UNL1        0.0608
      7 O          -3.1196   -1.8512    1.1269 O.2     1  UNL1       -0.1528
      8 O          -1.0393   -1.2108    2.3555 O.2     1  UNL1       -0.1528
      9 C          -2.8978    0.5199    2.0580 C.ar    1  UNL1        0.1056
     10 C          -2.2139    1.3946    2.8822 C.ar    1  UNL1       -0.0336
     11 C          -2.8423    2.5262    3.3638 C.ar    1  UNL1       -0.0390
     12 C          -4.1628    2.7852    3.0193 C.ar    1  UNL1        0.0276
     13 N          -4.8013    3.9290    3.5041 N.pl3   1  UNL1       -0.3354
     14 C          -6.1940    4.2006    3.1398 C.3     1  UNL1        0.0858
     15 C          -6.6416    5.4851    3.7884 C.2     1  UNL1        0.2304
     16 O          -5.8730    6.1120    4.4863 O.2     1  UNL1       -0.2741
     17 N          -7.8962    5.9372    3.5930 N.am    1  UNL1       -0.3099
     18 C          -8.3313    7.1859    4.2235 C.3     1  UNL1        0.0370
     19 C          -9.7640    7.4653    3.8487 C.ar    1  UNL1       -0.0266
     20 C         -10.0489    8.2020    2.7146 C.ar    1  UNL1       -0.0534
     21 C         -11.3619    8.4614    2.3667 C.ar    1  UNL1       -0.0160
     22 C         -12.3950    7.9822    3.1552 C.ar    1  UNL1        0.1615
     23 O         -13.6868    8.2360    2.8142 O.3     1  UNL1       -0.4915
     24 C         -13.9061    9.0038    1.6291 C.3     1  UNL1        0.0790
     25 C         -12.1080    7.2398    4.2972 C.ar    1  UNL1        0.1618
     26 O         -13.1188    6.7668    5.0743 O.3     1  UNL1       -0.4914
     27 C         -12.7497    6.0129    6.2308 C.3     1  UNL1        0.0790
     28 C         -10.7907    6.9792    4.6372 C.ar    1  UNL1       -0.0116
     29 C          -4.8469    1.9044    2.1911 C.ar    1  UNL1       -0.0390
     30 C          -4.2107    0.7776    1.7085 C.ar    1  UNL1       -0.0336
     31 H           1.0039    1.9031    0.0027 H       1  UNL1        0.0243
     32 H          -0.5459    1.8868   -0.8726 H       1  UNL1        0.0243
     33 H          -0.5289    1.8773    0.9072 H       1  UNL1        0.0243
     34 H           0.5123   -0.3556   -0.8948 H       1  UNL1        0.0441
     35 H           0.5293   -0.3651    0.8851 H       1  UNL1        0.0441
     36 H          -3.1804   -0.6037   -1.0465 H       1  UNL1        0.0441
     37 H          -1.8283    0.1500   -1.9251 H       1  UNL1        0.0441
     38 H          -2.3215   -2.1096   -2.8194 H       1  UNL1        0.0243
     39 H          -0.7022   -2.0536   -2.0825 H       1  UNL1        0.0243
     40 H          -2.0544   -2.8073   -1.2038 H       1  UNL1        0.0243
     41 H          -1.1873    1.1925    3.1499 H       1  UNL1        0.0638
     42 H          -2.3077    3.2088    4.0077 H       1  UNL1        0.0637
     43 H          -4.3225    4.5435    4.0821 H       1  UNL1        0.1466
     44 H          -6.2749    4.2930    2.0567 H       1  UNL1        0.0557
     45 H          -6.8257    3.3811    3.4827 H       1  UNL1        0.0557
     46 H          -8.5109    5.4358    3.0348 H       1  UNL1        0.1491
     47 H          -8.2505    7.0935    5.3066 H       1  UNL1        0.0512
     48 H          -7.6996    8.0054    3.8807 H       1  UNL1        0.0512
     49 H          -9.2444    8.5762    2.0989 H       1  UNL1        0.0622
     50 H         -11.5818    9.0380    1.4803 H       1  UNL1        0.0655
     51 H         -14.9770    9.1330    1.4728 H       1  UNL1        0.0660
     52 H         -13.4341    9.9804    1.7364 H       1  UNL1        0.0660
     53 H         -13.4743    8.4836    0.7741 H       1  UNL1        0.0660
     54 H         -13.6484    5.6962    6.7602 H       1  UNL1        0.0660
     55 H         -12.1795    5.1354    5.9258 H       1  UNL1        0.0660
     56 H         -12.1397    6.6320    6.8886 H       1  UNL1        0.0660
     57 H         -10.5653    6.4034    5.5227 H       1  UNL1        0.0658
     58 H          -5.8738    2.1027    1.9217 H       1  UNL1        0.0637
     59 H          -4.7419    0.0924    1.0646 H       1  UNL1        0.0638
@<TRIPOS>BOND
     1     1     2    1
     2     1    31    1
     3     1    32    1
     4     1    33    1
     5     2     3    1
     6     2    34    1
     7     2    35    1
     8     3     4    1
     9     6     3    1
    10     4     5    1
    11     4    36    1
    12     4    37    1
    13     5    38    1
    14     5    39    1
    15     5    40    1
    16     6     7    2
    17     6     8    2
    18     6     9    1
    19     9    30   ar
    20     9    10   ar
    21    10    11   ar
    22    10    41    1
    23    11    12   ar
    24    11    42    1
    25    12    13    1
    26    12    29   ar
    27    13    14    1
    28    13    43    1
    29    14    15    1
    30    14    44    1
    31    14    45    1
    32    15    16    2
    33    15    17   am
    34    17    18    1
    35    17    46    1
    36    18    19    1
    37    18    47    1
    38    18    48    1
    39    19    28   ar
    40    19    20   ar
    41    20    21   ar
    42    20    49    1
    43    21    22   ar
    44    21    50    1
    45    22    23    1
    46    22    25   ar
    47    23    24    1
    48    24    51    1
    49    24    52    1
    50    24    53    1
    51    25    26    1
    52    25    28   ar
    53    26    27    1
    54    27    54    1
    55    27    55    1
    56    27    56    1
    57    28    57    1
    58    29    30   ar
    59    29    58    1
    60    30    59    1
