@<TRIPOS>MOLECULE
ZINC000072008204
 37 37 0 0 0
SMALL
GASTEIGER

@<TRIPOS>ATOM
      1 C          -0.0307    1.5316    0.0299 C.3     1  UNL1       -0.0431
      2 C          -0.0037    0.0019    0.0137 C.3     1  UNL1        0.0721
      3 C           0.7347   -0.5083    1.2527 C.3     1  UNL1       -0.0431
      4 S          -1.7030   -0.6329    0.0183 S.O2    1  UNL1       -0.0178
      5 O          -1.6588   -2.0459   -0.1262 O.2     1  UNL1       -0.1734
      6 O          -2.3936   -0.0700    1.1253 O.2     1  UNL1       -0.1734
      7 C          -2.3748    0.0834   -1.5069 C.3     1  UNL1        0.1502
      8 H          -2.3243    1.1707   -1.4506 H       1  UNL1        0.0630
      9 C          -1.5551   -0.4040   -2.7034 C.3     1  UNL1       -0.0342
     10 C          -3.8100   -0.3450   -1.6733 C.2     1  UNL1        0.2411
     11 O          -4.2246   -1.3194   -1.0820 O.2     1  UNL1       -0.2734
     12 N          -4.6330    0.3548   -2.4792 N.am    1  UNL1       -0.2839
     13 C          -5.9370   -0.0971   -2.7101 C.ar    1  UNL1        0.0335
     14 C          -6.5253    0.0821   -3.9552 C.ar    1  UNL1       -0.0399
     15 C          -7.8126   -0.3650   -4.1798 C.ar    1  UNL1       -0.0484
     16 C          -8.5157   -0.9902   -3.1664 C.ar    1  UNL1        0.0549
     17 C          -9.9203   -1.4764   -3.4149 C.3     1  UNL1        0.4174
     18 F          -9.8816   -2.7941   -3.8834 F       1  UNL1       -0.1659
     19 F         -10.6488   -1.4270   -2.2215 F       1  UNL1       -0.1659
     20 F         -10.5344   -0.6596   -4.3703 F       1  UNL1       -0.1659
     21 C          -7.9325   -1.1706   -1.9256 C.ar    1  UNL1       -0.0484
     22 C          -6.6435   -0.7308   -1.6963 C.ar    1  UNL1       -0.0399
     23 H           0.9903    1.9131    0.0271 H       1  UNL1        0.0248
     24 H          -0.5568    1.8951   -0.8528 H       1  UNL1        0.0248
     25 H          -0.5449    1.8764    0.9270 H       1  UNL1        0.0248
     26 H           0.5105   -0.3429   -0.8835 H       1  UNL1        0.0530
     27 H           0.2205   -0.1635    2.1498 H       1  UNL1        0.0248
     28 H           0.7540   -1.5981    1.2411 H       1  UNL1        0.0248
     29 H           1.7558   -0.1268    1.2499 H       1  UNL1        0.0248
     30 H          -0.5170   -0.0942   -2.5830 H       1  UNL1        0.0253
     31 H          -1.6056   -1.4914   -2.7597 H       1  UNL1        0.0253
     32 H          -1.9588    0.0264   -3.6198 H       1  UNL1        0.0253
     33 H          -4.3213    1.1718   -2.8992 H       1  UNL1        0.1549
     34 H          -5.9770    0.5709   -4.7468 H       1  UNL1        0.0636
     35 H          -8.2707   -0.2260   -5.1479 H       1  UNL1        0.0624
     36 H          -8.4842   -1.6592   -1.1362 H       1  UNL1        0.0624
     37 H          -6.1886   -0.8720   -0.7270 H       1  UNL1        0.0636
@<TRIPOS>BOND
     1     1     2    1
     2     1    23    1
     3     1    24    1
     4     1    25    1
     5     2     3    1
     6     2     4    1
     7     2    26    1
     8     3    27    1
     9     3    28    1
    10     3    29    1
    11     4     5    2
    12     4     6    2
    13     4     7    1
    14     7     8    1
    15     7     9    1
    16     7    10    1
    17     9    30    1
    18     9    31    1
    19     9    32    1
    20    10    11    2
    21    10    12   am
    22    12    13    1
    23    12    33    1
    24    13    22   ar
    25    13    14   ar
    26    14    15   ar
    27    14    34    1
    28    15    16   ar
    29    15    35    1
    30    16    17    1
    31    16    21   ar
    32    17    18    1
    33    17    19    1
    34    17    20    1
    35    21    22   ar
    36    21    36    1
    37    22    37    1
