@<TRIPOS>MOLECULE
ZINC000085642150
 51 54 0 0 0
SMALL
GASTEIGER

@<TRIPOS>ATOM
      1 C          -0.0187    1.5258    0.0104 C.3     1  UNL1       -0.0623
      2 C           0.0021   -0.0041    0.0020 C.3     1  UNL1       -0.0415
      3 C           0.7170   -0.4974   -1.2580 C.3     1  UNL1       -0.0359
      4 C           0.7054   -2.0291   -1.2803 C.3     1  UNL1        0.0207
      5 N           1.2851   -2.5247   -0.0245 N.3     1  UNL1       -0.1766
      6 S           2.5396   -3.6056   -0.0430 S.O2    1  UNL1        0.0609
      7 O           2.5007   -4.2868    1.2034 O.2     1  UNL1       -0.1528
      8 O           2.4756   -4.2730   -1.2959 O.2     1  UNL1       -0.1528
      9 C           4.0333   -2.6710   -0.0528 C.ar    1  UNL1        0.1055
     10 C           4.6023   -2.2940   -1.2559 C.ar    1  UNL1       -0.0347
     11 C           5.7723   -1.5619   -1.2693 C.ar    1  UNL1       -0.0491
     12 C           6.3798   -1.2022   -0.0683 C.ar    1  UNL1        0.0226
     13 C           7.6380   -0.4144   -0.0765 C.ar    1  UNL1        0.2024
     14 N           8.2785    0.0116   -1.1349 N.ar    1  UNL1       -0.0557
     15 O           9.2714    0.6262   -0.8075 O.2     1  UNL1       -0.3325
     16 C           9.3697    0.6567    0.5306 C.ar    1  UNL1        0.2587
     17 C          10.4363    1.3077    1.3206 C.ar    1  UNL1        0.0395
     18 C          10.4090    1.2519    2.7149 C.ar    1  UNL1       -0.0489
     19 C          11.4077    1.8610    3.4463 C.ar    1  UNL1       -0.0494
     20 C          12.4346    2.5263    2.8006 C.ar    1  UNL1        0.0549
     21 C          13.5224    3.1890    3.6059 C.3     1  UNL1        0.4174
     22 F          14.5619    2.2784    3.8237 F       1  UNL1       -0.1659
     23 F          14.0119    4.2968    2.9057 F       1  UNL1       -0.1659
     24 F          13.0032    3.6069    4.8359 F       1  UNL1       -0.1659
     25 C          12.4676    2.5854    1.4186 C.ar    1  UNL1       -0.0494
     26 C          11.4779    1.9759    0.6753 C.ar    1  UNL1       -0.0489
     27 N           8.3289   -0.0006    1.0062 N.ar    1  UNL1       -0.1870
     28 C           5.8021   -1.5842    1.1406 C.ar    1  UNL1       -0.0491
     29 C           4.6294   -2.3121    1.1426 C.ar    1  UNL1       -0.0347
     30 C           0.7310   -2.0426    1.2480 C.3     1  UNL1        0.0207
     31 C           0.7423   -0.5108    1.2420 C.3     1  UNL1       -0.0359
     32 H           1.0039    1.9031    0.0027 H       1  UNL1        0.0232
     33 H          -0.5459    1.8868   -0.8726 H       1  UNL1        0.0232
     34 H          -0.5289    1.8773    0.9072 H       1  UNL1        0.0232
     35 H          -1.0206   -0.3812    0.0102 H       1  UNL1        0.0299
     36 H           0.2028   -0.1168   -2.1406 H       1  UNL1        0.0281
     37 H           1.7472   -0.1413   -1.2548 H       1  UNL1        0.0281
     38 H          -0.3204   -2.3854   -1.3749 H       1  UNL1        0.0444
     39 H           1.2978   -2.3867   -2.1225 H       1  UNL1        0.0444
     40 H           4.1305   -2.5733   -2.1863 H       1  UNL1        0.0637
     41 H           6.2162   -1.2686   -2.2092 H       1  UNL1        0.0625
     42 H           9.6077    0.7332    3.2202 H       1  UNL1        0.0625
     43 H          11.3875    1.8189    4.5253 H       1  UNL1        0.0623
     44 H          13.2718    3.1065    0.9206 H       1  UNL1        0.0623
     45 H          11.5048    2.0227   -0.4033 H       1  UNL1        0.0625
     46 H           6.2692   -1.3083    2.0744 H       1  UNL1        0.0625
     47 H           4.1805   -2.6084    2.0791 H       1  UNL1        0.0637
     48 H          -0.2926   -2.4001    1.3596 H       1  UNL1        0.0444
     49 H           1.3404   -2.4092    2.0741 H       1  UNL1        0.0444
     50 H           1.7723   -0.1546    1.2216 H       1  UNL1        0.0281
     51 H           0.2462   -0.1397    2.1388 H       1  UNL1        0.0281
@<TRIPOS>BOND
     1     1     2    1
     2     1    32    1
     3     1    33    1
     4     1    34    1
     5     2    31    1
     6     2     3    1
     7     2    35    1
     8     3     4    1
     9     3    36    1
    10     3    37    1
    11     4     5    1
    12     4    38    1
    13     4    39    1
    14     6     5    1
    15     5    30    1
    16     6     7    2
    17     6     8    2
    18     6     9    1
    19     9    29   ar
    20     9    10   ar
    21    10    11   ar
    22    10    40    1
    23    11    12   ar
    24    11    41    1
    25    12    13    1
    26    12    28   ar
    27    13    27   ar
    28    13    14   ar
    29    14    15   ar
    30    15    16   ar
    31    16    17    1
    32    16    27   ar
    33    17    26   ar
    34    17    18   ar
    35    18    19   ar
    36    18    42    1
    37    19    20   ar
    38    19    43    1
    39    20    21    1
    40    20    25   ar
    41    21    22    1
    42    21    23    1
    43    21    24    1
    44    25    26   ar
    45    25    44    1
    46    26    45    1
    47    28    29   ar
    48    28    46    1
    49    29    47    1
    50    30    31    1
    51    30    48    1
    52    30    49    1
    53    31    50    1
    54    31    51    1
