@<TRIPOS>MOLECULE
ZINC000034800100
 32 33 0 0 0
SMALL
GASTEIGER

@<TRIPOS>ATOM
      1 O           0.0021   -0.0041    0.0020 O.2     1  UNL1       -0.1528
      2 S          -0.0172    1.4168    0.0098 S.O2    1  UNL1        0.0609
      3 O           1.1617    2.2101    0.0028 O.2     1  UNL1       -0.1528
      4 C          -0.9567    1.9094   -1.3970 C.ar    1  UNL1        0.1055
      5 C          -1.8848    1.0442   -1.9458 C.ar    1  UNL1       -0.0348
      6 C          -2.6219    1.4307   -3.0496 C.ar    1  UNL1       -0.0483
      7 C          -2.4313    2.6825   -3.6042 C.ar    1  UNL1        0.0549
      8 C          -3.2345    3.1036   -4.8078 C.3     1  UNL1        0.4174
      9 F          -4.4138    3.7273   -4.3864 F       1  UNL1       -0.1659
     10 F          -2.4843    3.9973   -5.5796 F       1  UNL1       -0.1659
     11 F          -3.5510    1.9771   -5.5746 F       1  UNL1       -0.1659
     12 C          -1.5042    3.5481   -3.0546 C.ar    1  UNL1       -0.0483
     13 C          -0.7699    3.1631   -1.9485 C.ar    1  UNL1       -0.0348
     14 N          -0.8748    1.8654    1.3536 N.3     1  UNL1       -0.1742
     15 C          -0.6844    3.1904    1.9630 C.3     1  UNL1        0.0331
     16 C          -0.4252    3.0042    3.4617 C.3     1  UNL1        0.0104
     17 N          -1.5074    2.2012    4.0466 N.3     1  UNL1       -0.3134
     18 C          -1.5419    0.8515    3.4679 C.3     1  UNL1        0.0104
     19 C          -1.8513    0.9517    1.9657 C.3     1  UNL1        0.0331
     20 H          -2.0336    0.0662   -1.5125 H       1  UNL1        0.0637
     21 H          -3.3464    0.7545   -3.4788 H       1  UNL1        0.0624
     22 H          -1.3556    4.5263   -3.4877 H       1  UNL1        0.0624
     23 H          -0.0456    3.8394   -1.5191 H       1  UNL1        0.0637
     24 H           0.1702    3.6860    1.5023 H       1  UNL1        0.0456
     25 H          -1.5818    3.7922    1.8186 H       1  UNL1        0.0456
     26 H           0.5262    2.4921    3.6054 H       1  UNL1        0.0437
     27 H          -0.3913    3.9788    3.9488 H       1  UNL1        0.0437
     28 H          -1.4259    2.1618    5.0515 H       1  UNL1        0.1220
     29 H          -0.5749    0.3693    3.6115 H       1  UNL1        0.0437
     30 H          -2.3179    0.2647    3.9594 H       1  UNL1        0.0437
     31 H          -2.8610    1.3376    1.8248 H       1  UNL1        0.0456
     32 H          -1.7657   -0.0336    1.5076 H       1  UNL1        0.0456
@<TRIPOS>BOND
     1     1     2    2
     2     2     3    2
     3     2     4    1
     4     2    14    1
     5     4    13   ar
     6     4     5   ar
     7     5     6   ar
     8     5    20    1
     9     6     7   ar
    10     6    21    1
    11     7     8    1
    12     7    12   ar
    13     8     9    1
    14     8    10    1
    15     8    11    1
    16    12    13   ar
    17    12    22    1
    18    13    23    1
    19    14    19    1
    20    14    15    1
    21    15    16    1
    22    15    24    1
    23    15    25    1
    24    16    17    1
    25    16    26    1
    26    16    27    1
    27    17    18    1
    28    17    28    1
    29    18    19    1
    30    18    29    1
    31    18    30    1
    32    19    31    1
    33    19    32    1
