@<TRIPOS>MOLECULE
ZINC000013656164
 51 53 0 0 0
SMALL
GASTEIGER

@<TRIPOS>ATOM
      1 C          -0.6338   -0.0619    0.6939 C.3     1  UNL1        0.0788
      2 O          -0.2523   -1.4390    0.7052 O.3     1  UNL1       -0.4951
      3 C           0.3473   -1.9223   -0.4145 C.ar    1  UNL1        0.1201
      4 C           0.5692   -1.0868   -1.4996 C.ar    1  UNL1       -0.0196
      5 C           1.1793   -1.5804   -2.6365 C.ar    1  UNL1       -0.0536
      6 C           1.5683   -2.9060   -2.6937 C.ar    1  UNL1       -0.0293
      7 C           2.2332   -3.4419   -3.9354 C.3     1  UNL1        0.0490
      8 N           3.6844   -3.2751   -3.8230 N.am    1  UNL1       -0.2182
      9 C           4.3501   -2.1893   -4.2326 C.2     1  UNL1        0.3110
     10 O           3.8180   -1.2235   -4.7437 O.2     1  UNL1       -0.2521
     11 N           5.6742   -2.2860   -4.0154 N.am    1  UNL1       -0.2632
     12 C           5.9032   -3.5978   -3.3856 C.3     1  UNL1        0.2776
     13 N           6.7677   -4.4295   -4.2266 N.am    1  UNL1       -0.2796
     14 C           6.9552   -5.7291   -3.9226 C.2     1  UNL1        0.2182
     15 O           6.3439   -6.2311   -3.0032 O.2     1  UNL1       -0.2754
     16 C           7.9243   -6.5584   -4.7252 C.3     1  UNL1        0.0356
     17 C           9.3240   -5.9491   -4.6223 C.3     1  UNL1       -0.0419
     18 C          10.3079   -6.7911   -5.4371 C.3     1  UNL1       -0.0524
     19 C          10.3320   -8.2195   -4.8895 C.3     1  UNL1       -0.0530
     20 C           8.9323   -8.8288   -4.9924 C.3     1  UNL1       -0.0524
     21 C           7.9484   -7.9868   -4.1776 C.3     1  UNL1       -0.0419
     22 C           6.5128   -3.4272   -1.9927 C.3     1  UNL1        0.4365
     23 F           5.7054   -2.5751   -1.2315 F       1  UNL1       -0.1662
     24 F           6.5969   -4.6744   -1.3645 F       1  UNL1       -0.1662
     25 F           7.7934   -2.8760   -2.1085 F       1  UNL1       -0.1662
     26 C           4.5129   -4.1941   -3.2889 C.2     1  UNL1        0.2745
     27 O           4.2100   -5.2753   -2.8316 O.2     1  UNL1       -0.2706
     28 C           1.3487   -3.7406   -1.6135 C.ar    1  UNL1       -0.0536
     29 C           0.7437   -3.2505   -0.4723 C.ar    1  UNL1       -0.0196
     30 H           0.2497    0.5586    0.5437 H       1  UNL1        0.0660
     31 H          -1.3421    0.1122   -0.1160 H       1  UNL1        0.0660
     32 H          -1.0998    0.1938    1.6455 H       1  UNL1        0.0660
     33 H           0.2649   -0.0515   -1.4557 H       1  UNL1        0.0654
     34 H           1.3523   -0.9304   -3.4815 H       1  UNL1        0.0622
     35 H           1.9966   -4.5001   -4.0463 H       1  UNL1        0.0519
     36 H           1.8711   -2.8954   -4.8062 H       1  UNL1        0.0519
     37 H           6.3470   -1.6217   -4.2319 H       1  UNL1        0.1530
     38 H           7.2052   -4.0448   -5.0021 H       1  UNL1        0.1515
     39 H           7.6109   -6.5746   -5.7690 H       1  UNL1        0.0394
     40 H           9.3068   -4.9314   -5.0124 H       1  UNL1        0.0272
     41 H           9.6373   -5.9328   -3.5784 H       1  UNL1        0.0272
     42 H           9.9945   -6.8073   -6.4809 H       1  UNL1        0.0265
     43 H          11.3050   -6.3570   -5.3638 H       1  UNL1        0.0265
     44 H          11.0329   -8.8194   -5.4700 H       1  UNL1        0.0265
     45 H          10.6453   -8.2033   -3.8457 H       1  UNL1        0.0265
     46 H           8.6189   -8.8451   -6.0363 H       1  UNL1        0.0265
     47 H           8.9494   -9.8465   -4.6023 H       1  UNL1        0.0265
     48 H           8.2617   -7.9706   -3.1338 H       1  UNL1        0.0272
     49 H           6.9512   -8.4209   -4.2509 H       1  UNL1        0.0272
     50 H           1.6538   -4.7755   -1.6605 H       1  UNL1        0.0622
     51 H           0.5724   -3.9028    0.3713 H       1  UNL1        0.0654
@<TRIPOS>BOND
     1     1     2    1
     2     1    30    1
     3     1    31    1
     4     1    32    1
     5     2     3    1
     6     3    29   ar
     7     3     4   ar
     8     4     5   ar
     9     4    33    1
    10     5     6   ar
    11     5    34    1
    12     6     7    1
    13     6    28   ar
    14     7     8    1
    15     7    35    1
    16     7    36    1
    17     8    26   am
    18     8     9   am
    19     9    10    2
    20     9    11   am
    21    11    12    1
    22    11    37    1
    23    12    13    1
    24    12    22    1
    25    12    26    1
    26    13    14   am
    27    13    38    1
    28    14    15    2
    29    14    16    1
    30    16    21    1
    31    16    17    1
    32    16    39    1
    33    17    18    1
    34    17    40    1
    35    17    41    1
    36    18    19    1
    37    18    42    1
    38    18    43    1
    39    19    20    1
    40    19    44    1
    41    19    45    1
    42    20    21    1
    43    20    46    1
    44    20    47    1
    45    21    48    1
    46    21    49    1
    47    22    23    1
    48    22    24    1
    49    22    25    1
    50    26    27    2
    51    28    29   ar
    52    28    50    1
    53    29    51    1
