@<TRIPOS>MOLECULE
ZINC000033647906
 59 61 0 0 0
SMALL
GASTEIGER

@<TRIPOS>ATOM
      1 C           1.0261   -5.8997  -10.0417 C.3     1  UNL1        0.0790
      2 O           1.5296   -4.5675   -9.9243 O.3     1  UNL1       -0.4915
      3 C           1.7785   -4.1101   -8.6680 C.ar    1  UNL1        0.1616
      4 C           1.5488   -4.9275   -7.5734 C.ar    1  UNL1       -0.0145
      5 C           1.8029   -4.4610   -6.2967 C.ar    1  UNL1       -0.0317
      6 C           2.2856   -3.1796   -6.1092 C.ar    1  UNL1        0.1092
      7 S           2.6068   -2.5909   -4.4798 S.O2    1  UNL1        0.0617
      8 O           2.5221   -1.1738   -4.5412 O.2     1  UNL1       -0.1528
      9 O           1.8128   -3.3798   -3.6043 O.2     1  UNL1       -0.1528
     10 N           4.1853   -2.9504   -4.1310 N.3     1  UNL1       -0.1635
     11 C           4.5399   -4.2799   -3.6281 C.3     1  UNL1        0.0971
     12 C           4.9711   -5.1533   -4.7780 C.2     1  UNL1        0.2289
     13 O           4.9812   -4.7090   -5.9064 O.2     1  UNL1       -0.2743
     14 N           5.3455   -6.4283   -4.5524 N.am    1  UNL1       -0.3117
     15 C           5.7647   -7.2773   -5.6702 C.3     1  UNL1        0.0379
     16 C           6.1350   -8.6658   -5.1450 C.3     1  UNL1        0.0742
     17 H           5.2814   -9.1190   -4.6409 H       1  UNL1        0.0611
     18 C           6.6151   -9.5703   -6.3080 C.3     1  UNL1       -0.0231
     19 C           7.5027  -10.5889   -5.5421 C.3     1  UNL1       -0.0271
     20 C           8.1065   -9.7181   -4.4194 C.3     1  UNL1        0.0482
     21 O           7.2542   -8.5778   -4.2489 O.3     1  UNL1       -0.3750
     22 C           5.2271   -1.9389   -4.3253 C.3     1  UNL1        0.0460
     23 C           5.4921   -1.2336   -3.0201 C.ar    1  UNL1       -0.0317
     24 C           4.8523   -0.0415   -2.7364 C.ar    1  UNL1       -0.0573
     25 C           5.0954    0.6054   -1.5392 C.ar    1  UNL1       -0.0615
     26 C           5.9779    0.0601   -0.6256 C.ar    1  UNL1       -0.0617
     27 C           6.6170   -1.1325   -0.9090 C.ar    1  UNL1       -0.0615
     28 C           6.3706   -1.7816   -2.1043 C.ar    1  UNL1       -0.0573
     29 C           2.5176   -2.3586   -7.1975 C.ar    1  UNL1        0.0101
     30 C           2.2701   -2.8216   -8.4795 C.ar    1  UNL1        0.1633
     31 O           2.4977   -2.0155   -9.5509 O.3     1  UNL1       -0.4914
     32 C           2.9924   -0.7023   -9.2812 C.3     1  UNL1        0.0790
     33 H           1.7440   -6.5986   -9.6125 H       1  UNL1        0.0660
     34 H           0.0788   -5.9785   -9.5083 H       1  UNL1        0.0660
     35 H           0.8715   -6.1382  -11.0940 H       1  UNL1        0.0660
     36 H           1.1709   -5.9290   -7.7172 H       1  UNL1        0.0656
     37 H           1.6233   -5.0993   -5.4442 H       1  UNL1        0.0638
     38 H           5.3573   -4.1916   -2.9125 H       1  UNL1        0.0539
     39 H           3.6744   -4.7257   -3.1379 H       1  UNL1        0.0539
     40 H           5.3374   -6.7836   -3.6499 H       1  UNL1        0.1488
     41 H           4.9472   -7.3657   -6.3858 H       1  UNL1        0.0487
     42 H           6.6302   -6.8316   -6.1604 H       1  UNL1        0.0487
     43 H           5.7744  -10.0676   -6.7917 H       1  UNL1        0.0291
     44 H           7.2020   -9.0029   -7.0303 H       1  UNL1        0.0291
     45 H           6.8978  -11.3943   -5.1256 H       1  UNL1        0.0288
     46 H           8.2853  -10.9849   -6.1893 H       1  UNL1        0.0288
     47 H           8.1487  -10.2884   -3.4914 H       1  UNL1        0.0560
     48 H           9.1081   -9.3936   -4.7012 H       1  UNL1        0.0560
     49 H           6.1418   -2.4210   -4.6700 H       1  UNL1        0.0493
     50 H           4.8957   -1.2143   -5.0691 H       1  UNL1        0.0493
     51 H           4.1628    0.3846   -3.4501 H       1  UNL1        0.0621
     52 H           4.5961    1.5372   -1.3178 H       1  UNL1        0.0618
     53 H           6.1683    0.5659    0.3095 H       1  UNL1        0.0618
     54 H           7.3067   -1.5584   -0.1953 H       1  UNL1        0.0618
     55 H           6.8699   -2.7133   -2.3257 H       1  UNL1        0.0621
     56 H           2.8948   -1.3578   -7.0483 H       1  UNL1        0.0675
     57 H           3.1299   -0.1660  -10.2201 H       1  UNL1        0.0660
     58 H           2.2775   -0.1656   -8.6576 H       1  UNL1        0.0660
     59 H           3.9472   -0.7736   -8.7603 H       1  UNL1        0.0660
@<TRIPOS>BOND
     1     1     2    1
     2     1    33    1
     3     1    34    1
     4     1    35    1
     5     2     3    1
     6     3    30   ar
     7     3     4   ar
     8     4     5   ar
     9     4    36    1
    10     5     6   ar
    11     5    37    1
    12     6     7    1
    13     6    29   ar
    14     7     8    2
    15     7     9    2
    16     7    10    1
    17    10    11    1
    18    10    22    1
    19    11    12    1
    20    11    38    1
    21    11    39    1
    22    12    13    2
    23    12    14   am
    24    14    15    1
    25    14    40    1
    26    15    16    1
    27    15    41    1
    28    15    42    1
    29    16    17    1
    30    16    21    1
    31    16    18    1
    32    18    19    1
    33    18    43    1
    34    18    44    1
    35    19    20    1
    36    19    45    1
    37    19    46    1
    38    20    21    1
    39    20    47    1
    40    20    48    1
    41    22    23    1
    42    22    49    1
    43    22    50    1
    44    23    28   ar
    45    23    24   ar
    46    24    25   ar
    47    24    51    1
    48    25    26   ar
    49    25    52    1
    50    26    27   ar
    51    26    53    1
    52    27    28   ar
    53    27    54    1
    54    28    55    1
    55    29    30   ar
    56    29    56    1
    57    30    31    1
    58    31    32    1
    59    32    57    1
    60    32    58    1
    61    32    59    1
