@<TRIPOS>MOLECULE
ZINC000028207189
 44 44 0 0 0
SMALL
GASTEIGER

@<TRIPOS>ATOM
      1 C          -0.0173    1.4248    0.0099 C.3     1  UNL1        0.0364
      2 O           0.0021   -0.0041    0.0020 O.3     1  UNL1       -0.3829
      3 C          -1.2953   -0.6030    0.0112 C.3     1  UNL1        0.0487
      4 C          -1.1538   -2.1264    0.0017 C.3     1  UNL1       -0.0139
      5 C          -2.5429   -2.7677    0.0115 C.3     1  UNL1        0.0138
      6 N          -2.4075   -4.2264    0.0023 N.am    1  UNL1       -0.3124
      7 C          -3.5073   -5.0054    0.0087 C.2     1  UNL1        0.2507
      8 O          -4.6092   -4.4987    0.0219 O.2     1  UNL1       -0.2721
      9 C          -3.3680   -6.5059   -0.0007 C.3     1  UNL1        0.1651
     10 O          -4.6653   -7.1048    0.0084 O.3     1  UNL1       -0.4828
     11 C          -4.7181   -8.4628    0.0017 C.ar    1  UNL1        0.1213
     12 C          -3.5451   -9.2036   -0.0077 C.ar    1  UNL1       -0.0181
     13 C          -3.6014  -10.5839   -0.0141 C.ar    1  UNL1       -0.0319
     14 C          -4.8253  -11.2271   -0.0117 C.ar    1  UNL1        0.1057
     15 S          -4.8937  -12.9877   -0.0204 S.O2    1  UNL1        0.0604
     16 O          -6.1606  -13.3374   -0.5607 O.2     1  UNL1       -0.1529
     17 O          -3.6630  -13.4343   -0.5730 O.2     1  UNL1       -0.1529
     18 N          -4.9052  -13.4857    1.5589 N.3     1  UNL1       -0.1827
     19 C          -6.1781  -13.6568    2.2637 C.3     1  UNL1        0.0086
     20 C          -3.6425  -13.7552    2.2512 C.3     1  UNL1        0.0086
     21 C          -5.9958  -10.4910   -0.0019 C.ar    1  UNL1       -0.0319
     22 C          -5.9448   -9.1105    0.0099 C.ar    1  UNL1       -0.0181
     23 H           1.0053    1.8021    0.0021 H       1  UNL1        0.0523
     24 H          -0.5445    1.7859   -0.8732 H       1  UNL1        0.0523
     25 H          -0.5275    1.7763    0.9067 H       1  UNL1        0.0523
     26 H          -1.8320   -0.2936    0.9080 H       1  UNL1        0.0560
     27 H          -1.8490   -0.2840   -0.8718 H       1  UNL1        0.0560
     28 H          -0.6171   -2.4359   -0.8952 H       1  UNL1        0.0302
     29 H          -0.6001   -2.4454    0.8847 H       1  UNL1        0.0302
     30 H          -3.0796   -2.4582    0.9083 H       1  UNL1        0.0463
     31 H          -3.0966   -2.4487   -0.8716 H       1  UNL1        0.0463
     32 H          -1.5262   -4.6316   -0.0082 H       1  UNL1        0.1488
     33 H          -2.8312   -6.8153   -0.8975 H       1  UNL1        0.0795
     34 H          -2.8143   -6.8249    0.8823 H       1  UNL1        0.0795
     35 H          -2.5889   -8.7017   -0.0104 H       1  UNL1        0.0655
     36 H          -2.6886  -11.1611   -0.0214 H       1  UNL1        0.0638
     37 H          -6.5332  -14.6786    2.1294 H       1  UNL1        0.0408
     38 H          -6.0347  -13.4587    3.3259 H       1  UNL1        0.0408
     39 H          -6.9133  -12.9606    1.8602 H       1  UNL1        0.0408
     40 H          -3.2899  -12.8427    2.7320 H       1  UNL1        0.0408
     41 H          -3.7992  -14.5262    3.0056 H       1  UNL1        0.0408
     42 H          -2.8991  -14.0971    1.5311 H       1  UNL1        0.0408
     43 H          -6.9505  -10.9958    0.0004 H       1  UNL1        0.0638
     44 H          -6.8593   -8.5360    0.0176 H       1  UNL1        0.0655
@<TRIPOS>BOND
     1     1     2    1
     2     1    23    1
     3     1    24    1
     4     1    25    1
     5     2     3    1
     6     3     4    1
     7     3    26    1
     8     3    27    1
     9     4     5    1
    10     4    28    1
    11     4    29    1
    12     5     6    1
    13     5    30    1
    14     5    31    1
    15     6     7   am
    16     6    32    1
    17     7     8    2
    18     7     9    1
    19     9    10    1
    20     9    33    1
    21     9    34    1
    22    10    11    1
    23    11    22   ar
    24    11    12   ar
    25    12    13   ar
    26    12    35    1
    27    13    14   ar
    28    13    36    1
    29    14    15    1
    30    14    21   ar
    31    15    16    2
    32    15    17    2
    33    15    18    1
    34    18    19    1
    35    18    20    1
    36    19    37    1
    37    19    38    1
    38    19    39    1
    39    20    40    1
    40    20    41    1
    41    20    42    1
    42    21    22   ar
    43    21    43    1
    44    22    44    1
