@<TRIPOS>MOLECULE
ZINC000084579082
 36 38 0 0 0
SMALL
GASTEIGER

@<TRIPOS>ATOM
      1 O           0.0021   -0.0041    0.0020 O.co2   1  UNL1       -0.2456
      2 C          -0.0145    1.2150    0.0087 C.2     1  UNL1        0.3649
      3 O           1.0330    1.8389    0.0021 O.co2   1  UNL1       -0.2456
      4 C          -1.3296    1.9507    0.0190 C.3     1  UNL1        0.1047
      5 H          -1.4125    2.5675    0.9138 H       1  UNL1        0.0481
      6 C          -1.4701    2.8161   -1.2441 C.3     1  UNL1        0.0521
      7 N          -2.6513    2.2950   -1.9372 N.pl3   1  UNL1       -0.2016
      8 S          -3.2471    2.8800   -3.3673 S.O2    1  UNL1        0.0747
      9 O          -4.6213    2.5202   -3.4065 O.2     1  UNL1       -0.1498
     10 O          -2.7918    4.2219   -3.4728 O.2     1  UNL1       -0.1498
     11 C          -2.4610    1.9844   -4.6652 C.ar    1  UNL1        0.1087
     12 C          -1.2735    2.4451   -5.2022 C.ar    1  UNL1       -0.0345
     13 C          -0.6568    1.7424   -6.2204 C.ar    1  UNL1       -0.0483
     14 C          -1.2274    0.5788   -6.7014 C.ar    1  UNL1        0.0549
     15 C          -0.5553   -0.1869   -7.8118 C.3     1  UNL1        0.4174
     16 F           0.3281   -1.1234   -7.2642 F       1  UNL1       -0.1659
     17 F          -1.5235   -0.8493   -8.5740 F       1  UNL1       -0.1659
     18 F           0.1536    0.7011   -8.6280 F       1  UNL1       -0.1659
     19 C          -2.4142    0.1174   -6.1635 C.ar    1  UNL1       -0.0483
     20 C          -3.0289    0.8180   -5.1426 C.ar    1  UNL1       -0.0345
     21 C          -3.2006    1.2333   -1.2166 C.ar    1  UNL1        0.0553
     22 C          -4.3203    0.4516   -1.5078 C.ar    1  UNL1       -0.0388
     23 C          -4.7012   -0.5624   -0.6548 C.ar    1  UNL1       -0.0599
     24 C          -3.9767   -0.8132    0.4957 C.ar    1  UNL1       -0.0614
     25 C          -2.8666   -0.0434    0.7911 C.ar    1  UNL1       -0.0559
     26 C          -2.4814    0.9737   -0.0570 C.ar    1  UNL1       -0.0094
     27 H          -1.6216    3.8606   -0.9718 H       1  UNL1        0.0494
     28 H          -0.5861    2.7129   -1.8734 H       1  UNL1        0.0494
     29 H          -0.8277    3.3542   -4.8264 H       1  UNL1        0.0637
     30 H           0.2707    2.1028   -6.6404 H       1  UNL1        0.0624
     31 H          -2.8598   -0.7919   -6.5390 H       1  UNL1        0.0624
     32 H          -3.9562    0.4574   -4.7223 H       1  UNL1        0.0637
     33 H          -4.8907    0.6423   -2.4049 H       1  UNL1        0.0637
     34 H          -5.5684   -1.1631   -0.8863 H       1  UNL1        0.0618
     35 H          -4.2772   -1.6080    1.1622 H       1  UNL1        0.0618
     36 H          -2.2995   -0.2380    1.6894 H       1  UNL1        0.0621
@<TRIPOS>BOND
     1     1     2   ar
     2     2     3   ar
     3     2     4    1
     4     4     5    1
     5     4    26    1
     6     4     6    1
     7     6     7    1
     8     6    27    1
     9     6    28    1
    10     8     7    1
    11     7    21    1
    12     8     9    2
    13     8    10    2
    14     8    11    1
    15    11    20   ar
    16    11    12   ar
    17    12    13   ar
    18    12    29    1
    19    13    14   ar
    20    13    30    1
    21    14    15    1
    22    14    19   ar
    23    15    16    1
    24    15    17    1
    25    15    18    1
    26    19    20   ar
    27    19    31    1
    28    20    32    1
    29    21    26   ar
    30    21    22   ar
    31    22    23   ar
    32    22    33    1
    33    23    24   ar
    34    23    34    1
    35    24    25   ar
    36    24    35    1
    37    25    26   ar
    38    25    36    1
