@<TRIPOS>MOLECULE
ZINC000185955206
 42 43 0 0 0
SMALL
GASTEIGER

@<TRIPOS>ATOM
      1 C           0.7953    2.1788   -0.9722 C.3     1  UNL1       -0.0585
      2 C           0.3114    0.7294   -1.0489 C.3     1  UNL1        0.0046
      3 C           1.4840   -0.1782   -1.3177 C.2     1  UNL1        0.1517
      4 O           2.6040    0.2728   -1.3396 O.2     1  UNL1       -0.2957
      5 C           1.2590   -1.6486   -1.5590 C.3     1  UNL1        0.0898
      6 H           0.2950   -1.9436   -1.1445 H       1  UNL1        0.0558
      7 C           2.3750   -2.4558   -0.8884 C.3     1  UNL1       -0.0288
      8 C           2.2195   -3.9341   -1.2527 C.3     1  UNL1       -0.0500
      9 C           2.3448   -4.1035   -2.7685 C.3     1  UNL1       -0.0385
     10 C           1.2284   -3.3150   -3.4604 C.3     1  UNL1        0.0213
     11 N           1.2779   -1.9193   -3.0030 N.3     1  UNL1       -0.1664
     12 S           1.3596   -0.6762   -4.0940 S.O2    1  UNL1        0.0627
     13 O           2.1194    0.3523   -3.4743 O.2     1  UNL1       -0.1528
     14 O           1.7125   -1.2593   -5.3409 O.2     1  UNL1       -0.1528
     15 C          -0.2731   -0.0421   -4.2856 C.ar    1  UNL1        0.1228
     16 C          -0.5723    1.2361   -3.8623 C.ar    1  UNL1       -0.0335
     17 C          -1.8541    1.7357   -4.0119 C.ar    1  UNL1       -0.0482
     18 C          -2.8438    0.9580   -4.5859 C.ar    1  UNL1        0.0561
     19 C          -4.2368    1.5106   -4.7446 C.3     1  UNL1        0.4175
     20 F          -4.2808    2.8156   -4.2423 F       1  UNL1       -0.1659
     21 F          -4.5828    1.5208   -6.1001 F       1  UNL1       -0.1659
     22 F          -5.1400    0.7086   -4.0388 F       1  UNL1       -0.1659
     23 C          -2.5584   -0.3223   -5.0137 C.ar    1  UNL1       -0.0308
     24 C          -1.2658   -0.8304   -4.8714 C.ar    1  UNL1        0.0786
     25 C          -0.9624   -2.1583   -5.3132 C.1     1  UNL1        0.1011
     26 N          -0.7217   -3.2118   -5.6636 N.1     1  UNL1       -0.1908
     27 H           1.5979    2.2555   -0.2386 H       1  UNL1        0.0234
     28 H           1.1649    2.4907   -1.9490 H       1  UNL1        0.0234
     29 H          -0.0320    2.8228   -0.6742 H       1  UNL1        0.0234
     30 H          -0.1542    0.4513   -0.1034 H       1  UNL1        0.0339
     31 H          -0.4161    0.6314   -1.8547 H       1  UNL1        0.0339
     32 H           3.3434   -2.0955   -1.2353 H       1  UNL1        0.0285
     33 H           2.3090   -2.3388    0.1933 H       1  UNL1        0.0285
     34 H           2.9978   -4.5141   -0.7569 H       1  UNL1        0.0266
     35 H           1.2409   -4.2872   -0.9274 H       1  UNL1        0.0266
     36 H           3.3135   -3.7278   -3.0977 H       1  UNL1        0.0278
     37 H           2.2572   -5.1593   -3.0250 H       1  UNL1        0.0278
     38 H           1.3710   -3.3510   -4.5405 H       1  UNL1        0.0444
     39 H           0.2617   -3.7477   -3.2028 H       1  UNL1        0.0444
     40 H           0.1955    1.8483   -3.4128 H       1  UNL1        0.0637
     41 H          -2.0829    2.7372   -3.6788 H       1  UNL1        0.0624
     42 H          -3.3321   -0.9285   -5.4612 H       1  UNL1        0.0636
@<TRIPOS>BOND
     1     1     2    1
     2     1    27    1
     3     1    28    1
     4     1    29    1
     5     2     3    1
     6     2    30    1
     7     2    31    1
     8     3     4    2
     9     3     5    1
    10     5     6    1
    11     5    11    1
    12     5     7    1
    13     7     8    1
    14     7    32    1
    15     7    33    1
    16     8     9    1
    17     8    34    1
    18     8    35    1
    19     9    10    1
    20     9    36    1
    21     9    37    1
    22    10    11    1
    23    10    38    1
    24    10    39    1
    25    12    11    1
    26    12    13    2
    27    12    14    2
    28    12    15    1
    29    15    24   ar
    30    15    16   ar
    31    16    17   ar
    32    16    40    1
    33    17    18   ar
    34    17    41    1
    35    18    19    1
    36    18    23   ar
    37    19    20    1
    38    19    21    1
    39    19    22    1
    40    23    24   ar
    41    23    42    1
    42    24    25    1
    43    25    26    3
