@<TRIPOS>MOLECULE
ZINC000017847781
 45 47 0 0 0
SMALL
GASTEIGER

@<TRIPOS>ATOM
      1 O           1.0369    1.7881   -0.1934 O.2     1  UNL1       -0.2699
      2 C          -0.0144    1.2117    0.0087 C.2     1  UNL1        0.2502
      3 C          -0.0560   -0.2630    0.0246 C.ar    1  UNL1        0.0782
      4 C          -0.5761   -0.9391    1.1306 C.ar    1  UNL1       -0.0461
      5 C          -0.6121   -2.3169    1.1393 C.ar    1  UNL1       -0.0608
      6 C          -0.1346   -3.0353    0.0556 C.ar    1  UNL1       -0.0583
      7 C           0.3827   -2.3794   -1.0441 C.ar    1  UNL1       -0.0194
      8 C           0.4209   -0.9936   -1.0725 C.ar    1  UNL1        0.1290
      9 O           0.9283   -0.3480   -2.1523 O.3     1  UNL1       -0.5060
     10 N          -1.1407    1.9200    0.2237 N.am    1  UNL1       -0.2949
     11 C          -1.1334    3.3860    0.1213 C.3     1  UNL1        0.0294
     12 C          -2.2091    3.8124   -0.8853 C.3     1  UNL1        0.0364
     13 N          -3.4668    3.1325   -0.5448 N.3     1  UNL1       -0.1736
     14 S          -4.8509    4.0027   -0.2817 S.O2    1  UNL1        0.0609
     15 O          -5.6876    3.1901    0.5301 O.2     1  UNL1       -0.1528
     16 O          -4.4380    5.3100    0.0920 O.2     1  UNL1       -0.1528
     17 C          -5.6686    4.1639   -1.8341 C.ar    1  UNL1        0.1055
     18 C          -5.3867    5.2395   -2.6554 C.ar    1  UNL1       -0.0348
     19 C          -6.0283    5.3660   -3.8733 C.ar    1  UNL1       -0.0483
     20 C          -6.9513    4.4166   -4.2701 C.ar    1  UNL1        0.0549
     21 C          -7.6511    4.5547   -5.5977 C.3     1  UNL1        0.4174
     22 F          -6.9061    3.9046   -6.5874 F       1  UNL1       -0.1659
     23 F          -8.9229    3.9776   -5.5167 F       1  UNL1       -0.1659
     24 F          -7.7738    5.9102   -5.9213 F       1  UNL1       -0.1659
     25 C          -7.2322    3.3402   -3.4495 C.ar    1  UNL1       -0.0483
     26 C          -6.5879    3.2117   -2.2332 C.ar    1  UNL1       -0.0348
     27 C          -3.4741    1.6664   -0.4424 C.3     1  UNL1        0.0364
     28 C          -2.3996    1.2397    0.5587 C.3     1  UNL1        0.0294
     29 H          -0.9493   -0.3830    1.9779 H       1  UNL1        0.0626
     30 H          -1.0142   -2.8387    1.9951 H       1  UNL1        0.0618
     31 H          -0.1667   -4.1147    0.0709 H       1  UNL1        0.0619
     32 H           0.7538   -2.9466   -1.8850 H       1  UNL1        0.0654
     33 H           0.2727   -0.1462   -2.8339 H       1  UNL1        0.2922
     34 H          -1.3513    3.8219    1.0963 H       1  UNL1        0.0478
     35 H          -0.1559    3.7238   -0.2229 H       1  UNL1        0.0478
     36 H          -2.3512    4.8918   -0.8336 H       1  UNL1        0.0459
     37 H          -1.9011    3.5293   -1.8918 H       1  UNL1        0.0459
     38 H          -4.6656    5.9812   -2.3453 H       1  UNL1        0.0637
     39 H          -5.8086    6.2067   -4.5146 H       1  UNL1        0.0624
     40 H          -7.9531    2.5983   -3.7597 H       1  UNL1        0.0624
     41 H          -6.8073    2.3708   -1.5921 H       1  UNL1        0.0637
     42 H          -4.4516    1.3286   -0.0981 H       1  UNL1        0.0459
     43 H          -3.2561    1.2305   -1.4173 H       1  UNL1        0.0459
     44 H          -2.2586    0.1601    0.5060 H       1  UNL1        0.0478
     45 H          -2.7052    1.5224    1.5661 H       1  UNL1        0.0478
@<TRIPOS>BOND
     1     1     2    2
     2     2     3    1
     3     2    10   am
     4     3     8   ar
     5     3     4   ar
     6     4     5   ar
     7     4    29    1
     8     5     6   ar
     9     5    30    1
    10     6     7   ar
    11     6    31    1
    12     7     8   ar
    13     7    32    1
    14     8     9    1
    15     9    33    1
    16    10    28    1
    17    10    11    1
    18    11    12    1
    19    11    34    1
    20    11    35    1
    21    12    13    1
    22    12    36    1
    23    12    37    1
    24    14    13    1
    25    13    27    1
    26    14    15    2
    27    14    16    2
    28    14    17    1
    29    17    26   ar
    30    17    18   ar
    31    18    19   ar
    32    18    38    1
    33    19    20   ar
    34    19    39    1
    35    20    21    1
    36    20    25   ar
    37    21    22    1
    38    21    23    1
    39    21    24    1
    40    25    26   ar
    41    25    40    1
    42    26    41    1
    43    27    28    1
    44    27    42    1
    45    27    43    1
    46    28    44    1
    47    28    45    1
