@<TRIPOS>MOLECULE
ZINC000089904836
 51 53 0 0 0
SMALL
GASTEIGER

@<TRIPOS>ATOM
      1 C          -0.1797   -4.7774   -9.7466 C.3     1  UNL1        0.0788
      2 O           1.2032   -4.4441   -9.6106 O.3     1  UNL1       -0.4951
      3 C           1.6286   -4.0673   -8.3761 C.ar    1  UNL1        0.1201
      4 C           0.7345   -4.0248   -7.3162 C.ar    1  UNL1       -0.0196
      5 C           1.1695   -3.6420   -6.0621 C.ar    1  UNL1       -0.0524
      6 C           2.4945   -3.3008   -5.8630 C.ar    1  UNL1       -0.0146
      7 C           2.9662   -2.8830   -4.4941 C.3     1  UNL1        0.1052
      8 C           4.0341   -1.7961   -4.6323 C.3     1  UNL1       -0.0303
      9 O           1.8615   -2.3728   -3.7448 O.3     1  UNL1       -0.3826
     10 C           3.5599   -4.0919   -3.7682 C.3     1  UNL1        0.0645
     11 H           2.7883   -4.8458   -3.6117 H       1  UNL1        0.0512
     12 C           4.7151   -4.6881   -4.5998 C.3     1  UNL1       -0.0315
     13 C           5.7516   -5.0893   -3.5172 C.3     1  UNL1       -0.0370
     14 C           5.5699   -3.9555   -2.4774 C.3     1  UNL1        0.0210
     15 N           4.1196   -3.6733   -2.4748 N.3     1  UNL1       -0.1705
     16 S           3.2706   -2.9953   -1.2251 S.O2    1  UNL1        0.0612
     17 O           1.9028   -3.3048   -1.4547 O.2     1  UNL1       -0.1528
     18 O           3.9584   -3.3505   -0.0334 O.2     1  UNL1       -0.1528
     19 C           3.4182   -1.2465   -1.3824 C.ar    1  UNL1        0.1055
     20 C           4.5488   -0.6035   -0.9144 C.ar    1  UNL1       -0.0348
     21 C           4.6646    0.7685   -1.0378 C.ar    1  UNL1       -0.0483
     22 C           3.6500    1.4973   -1.6296 C.ar    1  UNL1        0.0549
     23 C           3.7760    2.9930   -1.7637 C.3     1  UNL1        0.4174
     24 F           4.3907    3.3019   -2.9819 F       1  UNL1       -0.1659
     25 F           2.5039    3.5737   -1.7228 F       1  UNL1       -0.1659
     26 F           4.5504    3.4920   -0.7108 F       1  UNL1       -0.1659
     27 C           2.5200    0.8541   -2.0988 C.ar    1  UNL1       -0.0483
     28 C           2.4059   -0.5183   -1.9789 C.ar    1  UNL1       -0.0348
     29 C           3.3876   -3.3428   -6.9177 C.ar    1  UNL1       -0.0524
     30 C           2.9588   -3.7301   -8.1725 C.ar    1  UNL1       -0.0196
     31 H          -0.4190   -5.6116   -9.0872 H       1  UNL1        0.0660
     32 H          -0.7894   -3.9149   -9.4774 H       1  UNL1        0.0660
     33 H          -0.3856   -5.0598  -10.7791 H       1  UNL1        0.0660
     34 H          -0.3007   -4.2906   -7.4713 H       1  UNL1        0.0654
     35 H           0.4739   -3.6087   -5.2367 H       1  UNL1        0.0622
     36 H           3.6111   -0.9348   -5.1494 H       1  UNL1        0.0261
     37 H           4.3752   -1.4939   -3.6422 H       1  UNL1        0.0261
     38 H           4.8767   -2.1853   -5.2038 H       1  UNL1        0.0261
     39 H           1.1449   -3.0095   -3.6177 H       1  UNL1        0.2107
     40 H           4.3787   -5.5638   -5.1549 H       1  UNL1        0.0282
     41 H           5.1314   -3.9395   -5.2738 H       1  UNL1        0.0282
     42 H           5.5085   -6.0594   -3.0839 H       1  UNL1        0.0279
     43 H           6.7626   -5.0874   -3.9246 H       1  UNL1        0.0279
     44 H           5.8917   -4.2901   -1.4912 H       1  UNL1        0.0444
     45 H           6.1293   -3.0702   -2.7798 H       1  UNL1        0.0444
     46 H           5.3415   -1.1729   -0.4520 H       1  UNL1        0.0637
     47 H           5.5476    1.2710   -0.6715 H       1  UNL1        0.0624
     48 H           1.7274    1.4234   -2.5615 H       1  UNL1        0.0624
     49 H           1.5230   -1.0209   -2.3455 H       1  UNL1        0.0637
     50 H           4.4222   -3.0762   -6.7595 H       1  UNL1        0.0622
     51 H           3.6568   -3.7627   -8.9960 H       1  UNL1        0.0654
@<TRIPOS>BOND
     1     1     2    1
     2     1    31    1
     3     1    32    1
     4     1    33    1
     5     2     3    1
     6     3    30   ar
     7     3     4   ar
     8     4     5   ar
     9     4    34    1
    10     5     6   ar
    11     5    35    1
    12     6    29   ar
    13     7     6    1
    14     7     8    1
    15     7     9    1
    16     7    10    1
    17     8    36    1
    18     8    37    1
    19     8    38    1
    20     9    39    1
    21    10    11    1
    22    10    15    1
    23    10    12    1
    24    12    13    1
    25    12    40    1
    26    12    41    1
    27    13    14    1
    28    13    42    1
    29    13    43    1
    30    14    15    1
    31    14    44    1
    32    14    45    1
    33    16    15    1
    34    16    17    2
    35    16    18    2
    36    16    19    1
    37    19    28   ar
    38    19    20   ar
    39    20    21   ar
    40    20    46    1
    41    21    22   ar
    42    21    47    1
    43    22    23    1
    44    22    27   ar
    45    23    24    1
    46    23    25    1
    47    23    26    1
    48    27    28   ar
    49    27    48    1
    50    28    49    1
    51    29    30   ar
    52    29    50    1
    53    30    51    1
