@<TRIPOS>MOLECULE
ZINC000007309541
 46 49 0 0 0
SMALL
GASTEIGER

@<TRIPOS>ATOM
      1 O           0.0021   -0.0041    0.0020 O.2     1  UNL1       -0.1528
      2 S          -0.0172    1.4168    0.0098 S.O2    1  UNL1        0.0614
      3 O           1.1617    2.2101    0.0028 O.2     1  UNL1       -0.1528
      4 C          -0.9567    1.9094   -1.3970 C.ar    1  UNL1        0.1055
      5 C          -1.8848    1.0442   -1.9458 C.ar    1  UNL1       -0.0348
      6 C          -2.6219    1.4307   -3.0496 C.ar    1  UNL1       -0.0483
      7 C          -2.4313    2.6825   -3.6042 C.ar    1  UNL1        0.0549
      8 C          -3.2345    3.1036   -4.8078 C.3     1  UNL1        0.4174
      9 F          -4.4138    3.7273   -4.3864 F       1  UNL1       -0.1659
     10 F          -2.4843    3.9973   -5.5796 F       1  UNL1       -0.1659
     11 F          -3.5510    1.9771   -5.5746 F       1  UNL1       -0.1659
     12 C          -1.5042    3.5481   -3.0546 C.ar    1  UNL1       -0.0483
     13 C          -0.7699    3.1631   -1.9485 C.ar    1  UNL1       -0.0348
     14 N          -0.8748    1.8654    1.3536 N.3     1  UNL1       -0.1692
     15 C          -0.7685    3.1619    2.0474 C.3     1  UNL1        0.0212
     16 C          -2.1234    3.3324    2.7789 C.3     1  UNL1       -0.0368
     17 C          -2.4234    1.8761    3.2223 C.3     1  UNL1       -0.0304
     18 C          -1.8728    1.0392    2.0485 C.3     1  UNL1        0.0569
     19 H          -2.6829    0.7771    1.3680 H       1  UNL1        0.0529
     20 C          -1.2197   -0.2131    2.5739 C.ar    1  UNL1       -0.0249
     21 C           0.0491   -0.1531    3.1187 C.ar    1  UNL1       -0.0533
     22 C           0.6524   -1.3001    3.5997 C.ar    1  UNL1       -0.0160
     23 C          -0.0143   -2.5143    3.5371 C.ar    1  UNL1        0.1621
     24 O           0.5957   -3.6365    4.0071 O.3     1  UNL1       -0.4849
     25 C          -0.2458   -4.7653    4.2675 C.3     1  UNL1        0.1237
     26 C          -1.1890   -4.9482    3.0707 C.3     1  UNL1        0.1237
     27 O          -1.9662   -3.7545    2.9259 O.3     1  UNL1       -0.4849
     28 C          -1.2920   -2.5740    2.9926 C.ar    1  UNL1        0.1624
     29 C          -1.8929   -1.4191    2.5153 C.ar    1  UNL1       -0.0116
     30 H          -2.0336    0.0662   -1.5125 H       1  UNL1        0.0637
     31 H          -3.3464    0.7545   -3.4788 H       1  UNL1        0.0624
     32 H          -1.3556    4.5263   -3.4877 H       1  UNL1        0.0624
     33 H          -0.0456    3.8394   -1.5191 H       1  UNL1        0.0637
     34 H           0.0507    3.1415    2.7661 H       1  UNL1        0.0444
     35 H          -0.6224    3.9668    1.3271 H       1  UNL1        0.0444
     36 H          -2.0213    3.9904    3.6418 H       1  UNL1        0.0279
     37 H          -2.8914    3.6996    2.0981 H       1  UNL1        0.0279
     38 H          -1.8997    1.6393    4.1485 H       1  UNL1        0.0284
     39 H          -3.4964    1.7203    3.3340 H       1  UNL1        0.0284
     40 H           0.5702    0.7916    3.1684 H       1  UNL1        0.0622
     41 H           1.6442   -1.2505    4.0243 H       1  UNL1        0.0655
     42 H           0.3660   -5.6586    4.3932 H       1  UNL1        0.0731
     43 H          -0.8289   -4.5883    5.1712 H       1  UNL1        0.0731
     44 H          -0.6058   -5.1191    2.1659 H       1  UNL1        0.0731
     45 H          -1.8489   -5.7971    3.2492 H       1  UNL1        0.0731
     46 H          -2.8862   -1.4625    2.0936 H       1  UNL1        0.0658
@<TRIPOS>BOND
     1     1     2    2
     2     2     3    2
     3     2     4    1
     4     2    14    1
     5     4    13   ar
     6     4     5   ar
     7     5     6   ar
     8     5    30    1
     9     6     7   ar
    10     6    31    1
    11     7     8    1
    12     7    12   ar
    13     8     9    1
    14     8    10    1
    15     8    11    1
    16    12    13   ar
    17    12    32    1
    18    13    33    1
    19    14    18    1
    20    14    15    1
    21    15    16    1
    22    15    34    1
    23    15    35    1
    24    16    17    1
    25    16    36    1
    26    16    37    1
    27    17    18    1
    28    17    38    1
    29    17    39    1
    30    18    19    1
    31    18    20    1
    32    20    29   ar
    33    20    21   ar
    34    21    22   ar
    35    21    40    1
    36    22    23   ar
    37    22    41    1
    38    23    28   ar
    39    23    24    1
    40    24    25    1
    41    25    26    1
    42    25    42    1
    43    25    43    1
    44    26    27    1
    45    26    44    1
    46    26    45    1
    47    27    28    1
    48    28    29   ar
    49    29    46    1
