@<TRIPOS>MOLECULE
ZINC000032770663
 56 58 0 0 0
SMALL
GASTEIGER

@<TRIPOS>ATOM
      1 C          -0.0178    1.4608    0.0101 C.3     1  UNL1        0.0103
      2 N           0.0021   -0.0041    0.0020 N.3     1  UNL1       -0.1664
      3 C           0.0241   -0.7433    1.2666 C.3     1  UNL1        0.0326
      4 C           1.2758   -0.3610    2.0591 C.3     1  UNL1       -0.0357
      5 C           1.2989   -1.1331    3.3798 C.3     1  UNL1       -0.0516
      6 C           0.0524   -0.7848    4.1959 C.3     1  UNL1       -0.0530
      7 C          -1.1993   -1.1671    3.4035 C.3     1  UNL1       -0.0516
      8 C          -1.2223   -0.3950    2.0828 C.3     1  UNL1       -0.0357
      9 S          -0.0004   -0.8243   -1.4366 S.O2    1  UNL1        0.0996
     10 O          -0.5247   -2.1160   -1.1611 O.2     1  UNL1       -0.1409
     11 O          -0.5660    0.0551   -2.3989 O.2     1  UNL1       -0.1409
     12 N           1.5805   -1.0455   -1.8774 N.3     1  UNL1       -0.1639
     13 C           2.2754   -0.0437   -2.6979 C.3     1  UNL1        0.0360
     14 C           3.5494    0.3926   -1.9639 C.3     1  UNL1        0.0350
     15 N           4.2827   -0.8089   -1.5412 N.3     1  UNL1       -0.1740
     16 S           5.8638   -1.0296   -1.9811 S.O2    1  UNL1        0.0609
     17 O           6.1042   -2.4290   -1.9255 O.2     1  UNL1       -0.1528
     18 O           6.0665   -0.2522   -3.1532 O.2     1  UNL1       -0.1528
     19 C           6.8614   -0.3031   -0.7235 C.ar    1  UNL1        0.1055
     20 C           7.2300    1.0261   -0.8153 C.ar    1  UNL1       -0.0348
     21 C           8.0126    1.5960    0.1714 C.ar    1  UNL1       -0.0483
     22 C           8.4263    0.8370    1.2501 C.ar    1  UNL1        0.0549
     23 C           9.2799    1.4583    2.3255 C.3     1  UNL1        0.4174
     24 F           8.4573    1.9985    3.3198 F       1  UNL1       -0.1659
     25 F          10.1086    0.4804    2.8861 F       1  UNL1       -0.1659
     26 F          10.0662    2.4726    1.7688 F       1  UNL1       -0.1659
     27 C           8.0566   -0.4918    1.3426 C.ar    1  UNL1       -0.0483
     28 C           7.2708   -1.0607    0.3579 C.ar    1  UNL1       -0.0348
     29 C           3.5877   -1.8107   -0.7207 C.3     1  UNL1        0.0350
     30 C           2.3154   -2.2443   -1.4501 C.3     1  UNL1        0.0360
     31 H           1.0048    1.8381    0.0023 H       1  UNL1        0.0408
     32 H          -0.5450    1.8219   -0.8730 H       1  UNL1        0.0408
     33 H          -0.5280    1.8123    0.9069 H       1  UNL1        0.0408
     34 H           0.0368   -1.8138    1.0616 H       1  UNL1        0.0480
     35 H           2.1638   -0.6091    1.4777 H       1  UNL1        0.0281
     36 H           1.2632    0.7094    2.2641 H       1  UNL1        0.0281
     37 H           1.3115   -2.2035    3.1748 H       1  UNL1        0.0266
     38 H           2.1906   -0.8607    3.9444 H       1  UNL1        0.0266
     39 H           0.0688   -1.3348    5.1369 H       1  UNL1        0.0265
     40 H           0.0398    0.2857    4.4010 H       1  UNL1        0.0265
     41 H          -1.1866   -2.2375    3.1984 H       1  UNL1        0.0266
     42 H          -2.0872   -0.9190    3.9849 H       1  UNL1        0.0266
     43 H          -1.2349    0.6754    2.2878 H       1  UNL1        0.0281
     44 H          -2.1140   -0.6674    1.5182 H       1  UNL1        0.0281
     45 H           2.5394   -0.4793   -3.6615 H       1  UNL1        0.0457
     46 H           1.6267    0.8191   -2.8491 H       1  UNL1        0.0457
     47 H           4.1729    0.9849   -2.6336 H       1  UNL1        0.0457
     48 H           3.2827    0.9851   -1.0887 H       1  UNL1        0.0457
     49 H           6.9068    1.6191   -1.6581 H       1  UNL1        0.0637
     50 H           8.3011    2.6343    0.0993 H       1  UNL1        0.0624
     51 H           8.3795   -1.0847    2.1856 H       1  UNL1        0.0624
     52 H           6.9819   -2.0989    0.4302 H       1  UNL1        0.0637
     53 H           4.2364   -2.6735   -0.5695 H       1  UNL1        0.0457
     54 H           3.3237   -1.3751    0.2429 H       1  UNL1        0.0457
     55 H           1.6930   -2.8365   -0.7792 H       1  UNL1        0.0457
     56 H           2.5797   -2.8366   -2.3261 H       1  UNL1        0.0457
@<TRIPOS>BOND
     1     1     2    1
     2     1    31    1
     3     1    32    1
     4     1    33    1
     5     2     3    1
     6     9     2    1
     7     3     8    1
     8     3     4    1
     9     3    34    1
    10     4     5    1
    11     4    35    1
    12     4    36    1
    13     5     6    1
    14     5    37    1
    15     5    38    1
    16     6     7    1
    17     6    39    1
    18     6    40    1
    19     7     8    1
    20     7    41    1
    21     7    42    1
    22     8    43    1
    23     8    44    1
    24     9    10    2
    25     9    11    2
    26     9    12    1
    27    12    30    1
    28    12    13    1
    29    13    14    1
    30    13    45    1
    31    13    46    1
    32    14    15    1
    33    14    47    1
    34    14    48    1
    35    16    15    1
    36    15    29    1
    37    16    17    2
    38    16    18    2
    39    16    19    1
    40    19    28   ar
    41    19    20   ar
    42    20    21   ar
    43    20    49    1
    44    21    22   ar
    45    21    50    1
    46    22    23    1
    47    22    27   ar
    48    23    24    1
    49    23    25    1
    50    23    26    1
    51    27    28   ar
    52    27    51    1
    53    28    52    1
    54    29    30    1
    55    29    53    1
    56    29    54    1
    57    30    55    1
    58    30    56    1
