@<TRIPOS>MOLECULE
ZINC000036885571
 38 39 0 0 0
SMALL
GASTEIGER

@<TRIPOS>ATOM
      1 C          -0.0187    1.5258    0.0104 C.3     1  UNL1       -0.0613
      2 C           0.0021   -0.0041    0.0020 C.3     1  UNL1       -0.0305
      3 C           0.7309   -0.5033    1.2229 C.ar    1  UNL1       -0.0475
      4 C           2.0970   -0.7095    1.1762 C.ar    1  UNL1       -0.0567
      5 C           2.7656   -1.1675    2.2961 C.ar    1  UNL1       -0.0351
      6 C           2.0682   -1.4187    3.4629 C.ar    1  UNL1        0.1055
      7 S           2.9203   -2.0029    4.8902 S.O2    1  UNL1        0.0613
      8 O           1.9540   -2.6726    5.6883 O.2     1  UNL1       -0.1528
      9 O           4.1080   -2.6265    4.4212 O.2     1  UNL1       -0.1528
     10 N           3.3996   -0.6735    5.7533 N.3     1  UNL1       -0.1655
     11 C           2.5183   -0.1088    6.7783 C.3     1  UNL1        0.1219
     12 C           2.8902   -0.6714    8.1260 C.2     1  UNL1        0.3714
     13 O           3.8064   -1.4700    8.2214 O.co2   1  UNL1       -0.2449
     14 O           2.2747   -0.3279    9.1209 O.co2   1  UNL1       -0.2449
     15 C           4.7050   -0.0620    5.4920 C.3     1  UNL1        0.0239
     16 C           4.5381    1.0935    4.5030 C.3     1  UNL1       -0.0266
     17 C           4.8801    2.5007    4.9966 C.3     1  UNL1       -0.0487
     18 C           5.8079    1.7898    4.0094 C.3     1  UNL1       -0.0487
     19 C           0.7023   -1.2112    3.5100 C.ar    1  UNL1       -0.0351
     20 C           0.0343   -0.7496    2.3912 C.ar    1  UNL1       -0.0567
     21 H           1.0039    1.9031    0.0027 H       1  UNL1        0.0233
     22 H          -0.5459    1.8868   -0.8726 H       1  UNL1        0.0233
     23 H          -0.5289    1.8773    0.9072 H       1  UNL1        0.0233
     24 H          -1.0205   -0.3814    0.0098 H       1  UNL1        0.0311
     25 H           0.5123   -0.3556   -0.8948 H       1  UNL1        0.0311
     26 H           2.6419   -0.5132    0.2646 H       1  UNL1        0.0621
     27 H           3.8328   -1.3293    2.2593 H       1  UNL1        0.0637
     28 H           2.6279    0.9756    6.7945 H       1  UNL1        0.0560
     29 H           1.4840   -0.3660    6.5500 H       1  UNL1        0.0560
     30 H           5.1226    0.3159    6.4252 H       1  UNL1        0.0447
     31 H           5.3776   -0.8082    5.0688 H       1  UNL1        0.0447
     32 H           3.7125    0.9937    3.7984 H       1  UNL1        0.0314
     33 H           4.2793    3.3271    4.6169 H       1  UNL1        0.0268
     34 H           5.2239    2.6034    6.0259 H       1  UNL1        0.0268
     35 H           6.7622    1.4247    4.3892 H       1  UNL1        0.0268
     36 H           5.8175    2.1485    2.9802 H       1  UNL1        0.0268
     37 H           0.1575   -1.4071    4.4217 H       1  UNL1        0.0637
     38 H          -1.0328   -0.5874    2.4281 H       1  UNL1        0.0621
@<TRIPOS>BOND
     1     1     2    1
     2     1    21    1
     3     1    22    1
     4     1    23    1
     5     2     3    1
     6     2    24    1
     7     2    25    1
     8     3    20   ar
     9     3     4   ar
    10     4     5   ar
    11     4    26    1
    12     5     6   ar
    13     5    27    1
    14     6     7    1
    15     6    19   ar
    16     7     8    2
    17     7     9    2
    18     7    10    1
    19    10    11    1
    20    10    15    1
    21    11    12    1
    22    11    28    1
    23    11    29    1
    24    12    13   ar
    25    12    14   ar
    26    15    16    1
    27    15    30    1
    28    15    31    1
    29    16    18    1
    30    16    17    1
    31    16    32    1
    32    17    18    1
    33    17    33    1
    34    17    34    1
    35    18    35    1
    36    18    36    1
    37    19    20   ar
    38    19    37    1
    39    20    38    1
