@<TRIPOS>MOLECULE
ZINC000096171016
 36 37 0 0 0
SMALL
GASTEIGER

@<TRIPOS>ATOM
      1 C          -0.0187    1.5258    0.0104 C.3     1  UNL1       -0.0612
      2 C           0.0021   -0.0041    0.0020 C.3     1  UNL1       -0.0294
      3 H           0.5122   -0.3561   -0.8946 H       1  UNL1        0.0311
      4 C          -1.4334   -0.5345    0.0145 C.3     1  UNL1       -0.0480
      5 C          -1.4142   -2.0642   -0.0270 C.3     1  UNL1       -0.0383
      6 C          -0.6916   -2.5957    1.2148 C.3     1  UNL1        0.0205
      7 N           0.6392   -1.9773    1.2884 N.3     1  UNL1       -0.1763
      8 S           1.9987   -2.9138    1.4188 S.O2    1  UNL1        0.0609
      9 O           2.9971   -2.0919    2.0077 O.2     1  UNL1       -0.1528
     10 O           1.5812   -4.1514    1.9786 O.2     1  UNL1       -0.1528
     11 C           2.5472   -3.2678   -0.2178 C.ar    1  UNL1        0.1071
     12 C           2.0798   -4.3897   -0.8756 C.ar    1  UNL1       -0.0213
     13 C           2.5102   -4.6673   -2.1608 C.ar    1  UNL1        0.0203
     14 BR          1.8705   -6.2020   -3.0616 Br      1  UNL1       -0.0502
     15 C           3.4080   -3.8218   -2.7867 C.ar    1  UNL1       -0.0360
     16 C           3.8749   -2.6997   -2.1279 C.ar    1  UNL1        0.0577
     17 C           4.8529   -1.7780   -2.8100 C.3     1  UNL1        0.4175
     18 F           5.1351   -2.2634   -4.0914 F       1  UNL1       -0.1659
     19 F           4.2967   -0.4981   -2.9081 F       1  UNL1       -0.1659
     20 F           6.0346   -1.7171   -2.0637 F       1  UNL1       -0.1659
     21 C           3.4407   -2.4200   -0.8459 C.ar    1  UNL1       -0.0236
     22 C           0.7415   -0.5122    1.2437 C.3     1  UNL1        0.0231
     23 H           1.0039    1.9031    0.0027 H       1  UNL1        0.0233
     24 H          -0.5459    1.8868   -0.8726 H       1  UNL1        0.0233
     25 H          -0.5289    1.8773    0.9072 H       1  UNL1        0.0233
     26 H          -1.9355   -0.2021    0.9231 H       1  UNL1        0.0269
     27 H          -1.9686   -0.1542   -0.8556 H       1  UNL1        0.0269
     28 H          -2.4371   -2.4406   -0.0417 H       1  UNL1        0.0278
     29 H          -0.8906   -2.3972   -0.9231 H       1  UNL1        0.0278
     30 H          -1.2630   -2.3406    2.1072 H       1  UNL1        0.0444
     31 H          -0.5879   -3.6783    1.1418 H       1  UNL1        0.0444
     32 H           1.3790   -5.0499   -0.3863 H       1  UNL1        0.0648
     33 H           3.7445   -4.0383   -3.7898 H       1  UNL1        0.0634
     34 H           3.8054   -1.5431   -0.3317 H       1  UNL1        0.0642
     35 H           1.7904   -0.2207    1.1903 H       1  UNL1        0.0446
     36 H           0.2870   -0.0867    2.1384 H       1  UNL1        0.0446
@<TRIPOS>BOND
     1     1     2    1
     2     1    23    1
     3     1    24    1
     4     1    25    1
     5     2     3    1
     6     2    22    1
     7     2     4    1
     8     4     5    1
     9     4    26    1
    10     4    27    1
    11     5     6    1
    12     5    28    1
    13     5    29    1
    14     6     7    1
    15     6    30    1
    16     6    31    1
    17     8     7    1
    18     7    22    1
    19     8     9    2
    20     8    10    2
    21     8    11    1
    22    11    21   ar
    23    11    12   ar
    24    12    13   ar
    25    12    32    1
    26    13    14    1
    27    13    15   ar
    28    15    16   ar
    29    15    33    1
    30    16    17    1
    31    16    21   ar
    32    17    18    1
    33    17    19    1
    34    17    20    1
    35    21    34    1
    36    22    35    1
    37    22    36    1
