@<TRIPOS>MOLECULE
ZINC000409391479
 60 61 0 0 0
SMALL
GASTEIGER

@<TRIPOS>ATOM
      1 C          -0.0187    1.5258    0.0104 C.3     1  UNL1       -0.0652
      2 C           0.0021   -0.0041    0.0020 C.3     1  UNL1       -0.0542
      3 C           0.7421   -0.5109    1.2415 C.3     1  UNL1       -0.0350
      4 C           0.7628   -2.0407    1.2331 C.3     1  UNL1        0.0203
      5 H          -0.2567   -2.4175    1.1513 H       1  UNL1        0.0495
      6 C           1.3918   -2.5494    2.5318 C.3     1  UNL1       -0.0466
      7 N           1.5508   -2.5122    0.0916 N.am    1  UNL1       -0.3116
      8 C           1.3205   -3.7345   -0.4273 C.2     1  UNL1        0.2290
      9 O           0.4611   -4.4442    0.0507 O.2     1  UNL1       -0.2743
     10 C           2.1311   -4.2195   -1.6016 C.3     1  UNL1        0.0971
     11 N           1.6924   -5.5665   -1.9748 N.3     1  UNL1       -0.1635
     12 C           0.5477   -5.7417   -2.8721 C.3     1  UNL1        0.0460
     13 C           1.0128   -5.6533   -4.3029 C.ar    1  UNL1       -0.0317
     14 C           1.0416   -4.4300   -4.9459 C.ar    1  UNL1       -0.0573
     15 C           1.4682   -4.3489   -6.2583 C.ar    1  UNL1       -0.0615
     16 C           1.8664   -5.4911   -6.9275 C.ar    1  UNL1       -0.0617
     17 C           1.8385   -6.7143   -6.2841 C.ar    1  UNL1       -0.0615
     18 C           1.4159   -6.7947   -4.9704 C.ar    1  UNL1       -0.0573
     19 S           2.4905   -6.8911   -1.3824 S.O2    1  UNL1        0.0617
     20 O           2.2389   -7.9519   -2.2938 O.2     1  UNL1       -0.1528
     21 O           3.7986   -6.4524   -1.0423 O.2     1  UNL1       -0.1528
     22 C           1.7066   -7.3386    0.1308 C.ar    1  UNL1        0.1092
     23 C           2.1436   -6.7909    1.3221 C.ar    1  UNL1       -0.0317
     24 C           1.5320   -7.1393    2.5124 C.ar    1  UNL1       -0.0145
     25 C           0.4786   -8.0388    2.5124 C.ar    1  UNL1        0.1616
     26 O          -0.1243   -8.3822    3.6821 O.3     1  UNL1       -0.4915
     27 C           0.3802   -7.7767    4.8741 C.3     1  UNL1        0.0790
     28 C           0.0381   -8.5901    1.3126 C.ar    1  UNL1        0.1633
     29 O          -0.9960   -9.4733    1.3074 O.3     1  UNL1       -0.4914
     30 C          -1.3942   -9.9986    0.0395 C.3     1  UNL1        0.0790
     31 C           0.6518   -8.2329    0.1232 C.ar    1  UNL1        0.0101
     32 H           1.0039    1.9031    0.0027 H       1  UNL1        0.0230
     33 H          -0.5459    1.8868   -0.8726 H       1  UNL1        0.0230
     34 H          -0.5289    1.8773    0.9072 H       1  UNL1        0.0230
     35 H          -1.0205   -0.3814    0.0098 H       1  UNL1        0.0263
     36 H           0.5123   -0.3556   -0.8948 H       1  UNL1        0.0263
     37 H           1.7647   -0.1336    1.2338 H       1  UNL1        0.0283
     38 H           0.2319   -0.1594    2.1383 H       1  UNL1        0.0283
     39 H           0.8055   -2.1987    3.3812 H       1  UNL1        0.0247
     40 H           1.4065   -3.6393    2.5258 H       1  UNL1        0.0247
     41 H           2.4113   -2.1727    2.6137 H       1  UNL1        0.0247
     42 H           2.2382   -1.9445   -0.2908 H       1  UNL1        0.1490
     43 H           1.9885   -3.5441   -2.4452 H       1  UNL1        0.0539
     44 H           3.1863   -4.2433   -1.3297 H       1  UNL1        0.0539
     45 H           0.0948   -6.7176   -2.6970 H       1  UNL1        0.0493
     46 H          -0.1875   -4.9602   -2.6801 H       1  UNL1        0.0493
     47 H           0.7305   -3.5377   -4.4231 H       1  UNL1        0.0621
     48 H           1.4901   -3.3932   -6.7609 H       1  UNL1        0.0618
     49 H           2.1990   -5.4278   -7.9530 H       1  UNL1        0.0618
     50 H           2.1493   -7.6067   -6.8070 H       1  UNL1        0.0618
     51 H           1.3941   -7.7504   -4.4677 H       1  UNL1        0.0621
     52 H           2.9648   -6.0895    1.3234 H       1  UNL1        0.0638
     53 H           1.8759   -6.7104    3.4420 H       1  UNL1        0.0656
     54 H          -0.1877   -8.1358    5.7324 H       1  UNL1        0.0660
     55 H           1.4309   -8.0389    4.9982 H       1  UNL1        0.0660
     56 H           0.2821   -6.6936    4.8010 H       1  UNL1        0.0660
     57 H          -2.2266  -10.6887    0.1774 H       1  UNL1        0.0660
     58 H          -1.7041   -9.1810   -0.6114 H       1  UNL1        0.0660
     59 H          -0.5558  -10.5267   -0.4145 H       1  UNL1        0.0660
     60 H           0.3120   -8.6592   -0.8091 H       1  UNL1        0.0675
@<TRIPOS>BOND
     1     1     2    1
     2     1    32    1
     3     1    33    1
     4     1    34    1
     5     2     3    1
     6     2    35    1
     7     2    36    1
     8     3     4    1
     9     3    37    1
    10     3    38    1
    11     4     5    1
    12     4     6    1
    13     4     7    1
    14     6    39    1
    15     6    40    1
    16     6    41    1
    17     7     8   am
    18     7    42    1
    19     8     9    2
    20     8    10    1
    21    10    11    1
    22    10    43    1
    23    10    44    1
    24    11    12    1
    25    19    11    1
    26    12    13    1
    27    12    45    1
    28    12    46    1
    29    13    18   ar
    30    13    14   ar
    31    14    15   ar
    32    14    47    1
    33    15    16   ar
    34    15    48    1
    35    16    17   ar
    36    16    49    1
    37    17    18   ar
    38    17    50    1
    39    18    51    1
    40    19    20    2
    41    19    21    2
    42    19    22    1
    43    22    31   ar
    44    22    23   ar
    45    23    24   ar
    46    23    52    1
    47    24    25   ar
    48    24    53    1
    49    25    26    1
    50    25    28   ar
    51    26    27    1
    52    27    54    1
    53    27    55    1
    54    27    56    1
    55    28    29    1
    56    28    31   ar
    57    29    30    1
    58    30    57    1
    59    30    58    1
    60    30    59    1
    61    31    60    1
