@<TRIPOS>MOLECULE
ZINC000222747558
 54 55 0 0 0
SMALL
GASTEIGER

@<TRIPOS>ATOM
      1 C          -0.0217    1.5523    0.0239 C.3     1  UNL1       -0.0507
      2 C           0.0073    0.0225    0.0212 C.3     1  UNL1        0.0177
      3 N           0.6993   -0.4507   -1.1803 N.3     1  UNL1       -0.1771
      4 C           2.1600   -0.5629   -1.1879 C.3     1  UNL1        0.0177
      5 C           2.5708   -1.9133   -0.5976 C.3     1  UNL1       -0.0507
      6 S          -0.1695   -0.8586   -2.5297 S.O2    1  UNL1        0.0608
      7 O           0.6417   -1.7583   -3.2724 O.2     1  UNL1       -0.1528
      8 O          -1.4787   -1.1816   -2.0815 O.2     1  UNL1       -0.1528
      9 C          -0.3243    0.5971   -3.5102 C.ar    1  UNL1        0.1057
     10 C          -1.3984    1.4467   -3.3195 C.ar    1  UNL1       -0.0319
     11 C          -1.5220    2.5887   -4.0869 C.ar    1  UNL1       -0.0181
     12 C          -0.5671    2.8830   -5.0494 C.ar    1  UNL1        0.1213
     13 O          -0.6863    4.0060   -5.8053 O.3     1  UNL1       -0.4828
     14 C           0.3339    4.2454   -6.7769 C.3     1  UNL1        0.1655
     15 C           0.0359    5.5260   -7.5132 C.2     1  UNL1        0.2548
     16 O          -0.9529    6.1703   -7.2335 O.2     1  UNL1       -0.2717
     17 N           0.8681    5.9553   -8.4825 N.am    1  UNL1       -0.2827
     18 C           0.5422    7.0911   -9.2320 C.ar    1  UNL1        0.0335
     19 C           0.8792    7.1570  -10.5776 C.ar    1  UNL1       -0.0402
     20 C           0.5561    8.2795  -11.3147 C.ar    1  UNL1       -0.0564
     21 C          -0.1016    9.3372  -10.7139 C.ar    1  UNL1       -0.0385
     22 C          -0.4521   10.5607  -11.5210 C.3     1  UNL1        0.0489
     23 C          -1.8187   10.3852  -12.1315 C.2     1  UNL1        0.2148
     24 N          -2.3434   11.3599  -12.9004 N.am    1  UNL1       -0.3291
     25 O          -2.4462    9.3669  -11.9310 O.2     1  UNL1       -0.2757
     26 C          -0.4389    9.2744   -9.3744 C.ar    1  UNL1       -0.0564
     27 C          -0.1238    8.1524   -8.6332 C.ar    1  UNL1       -0.0402
     28 C           0.5098    2.0292   -5.2385 C.ar    1  UNL1       -0.0181
     29 C           0.6315    0.8909   -4.4651 C.ar    1  UNL1       -0.0319
     30 H           0.9989    1.9350    0.0180 H       1  UNL1        0.0243
     31 H          -0.5480    1.9073   -0.8622 H       1  UNL1        0.0243
     32 H          -0.5366    1.9043    0.9178 H       1  UNL1        0.0243
     33 H           0.5336   -0.3325    0.9072 H       1  UNL1        0.0441
     34 H          -1.0133   -0.3602    0.0271 H       1  UNL1        0.0441
     35 H           2.5248   -0.4881   -2.2123 H       1  UNL1        0.0441
     36 H           2.5893    0.2408   -0.5897 H       1  UNL1        0.0441
     37 H           2.2060   -1.9882    0.4269 H       1  UNL1        0.0243
     38 H           2.1415   -2.7171   -1.1957 H       1  UNL1        0.0243
     39 H           3.6576   -1.9969   -0.6032 H       1  UNL1        0.0243
     40 H          -2.1414    1.2172   -2.5701 H       1  UNL1        0.0638
     41 H          -2.3615    3.2516   -3.9381 H       1  UNL1        0.0655
     42 H           1.2990    4.3297   -6.2771 H       1  UNL1        0.0795
     43 H           0.3627    3.4173   -7.4851 H       1  UNL1        0.0795
     44 H           1.6929    5.4769   -8.6606 H       1  UNL1        0.1549
     45 H           1.3935    6.3316  -11.0472 H       1  UNL1        0.0636
     46 H           0.8179    8.3314  -12.3612 H       1  UNL1        0.0621
     47 H          -0.4539   11.4361  -10.8716 H       1  UNL1        0.0407
     48 H           0.2847   10.6971  -12.3126 H       1  UNL1        0.0407
     49 H          -1.8415   12.1743  -13.0607 H       1  UNL1        0.1449
     50 H          -3.2231   11.2469  -13.2933 H       1  UNL1        0.1449
     51 H          -0.9526   10.1021   -8.9081 H       1  UNL1        0.0621
     52 H          -0.3875    8.1040   -7.5870 H       1  UNL1        0.0636
     53 H           1.2543    2.2559   -5.9873 H       1  UNL1        0.0655
     54 H           1.4699    0.2261   -4.6117 H       1  UNL1        0.0638
@<TRIPOS>BOND
     1     1     2    1
     2     1    30    1
     3     1    31    1
     4     1    32    1
     5     2     3    1
     6     2    33    1
     7     2    34    1
     8     3     4    1
     9     6     3    1
    10     4     5    1
    11     4    35    1
    12     4    36    1
    13     5    37    1
    14     5    38    1
    15     5    39    1
    16     6     7    2
    17     6     8    2
    18     6     9    1
    19     9    29   ar
    20     9    10   ar
    21    10    11   ar
    22    10    40    1
    23    11    12   ar
    24    11    41    1
    25    12    13    1
    26    12    28   ar
    27    13    14    1
    28    14    15    1
    29    14    42    1
    30    14    43    1
    31    15    16    2
    32    15    17   am
    33    17    18    1
    34    17    44    1
    35    18    27   ar
    36    18    19   ar
    37    19    20   ar
    38    19    45    1
    39    20    21   ar
    40    20    46    1
    41    21    22    1
    42    21    26   ar
    43    22    23    1
    44    22    47    1
    45    22    48    1
    46    23    24   am
    47    23    25    2
    48    24    49    1
    49    24    50    1
    50    26    27   ar
    51    26    51    1
    52    27    52    1
    53    28    29   ar
    54    28    53    1
    55    29    54    1
