@<TRIPOS>MOLECULE
ZINC000408621012
 61 62 0 0 0
SMALL
GASTEIGER

@<TRIPOS>ATOM
      1 C          -0.0173    1.4248    0.0099 C.3     1  UNL1        0.0365
      2 O           0.0021   -0.0041    0.0020 O.3     1  UNL1       -0.3812
      3 C           0.6518   -0.5703   -1.1379 C.3     1  UNL1        0.0654
      4 C           0.6131   -2.0967   -1.0411 C.3     1  UNL1        0.0437
      5 H           1.0288   -2.5292   -1.9512 H       1  UNL1        0.0518
      6 C          -0.8350   -2.5604   -0.8713 C.3     1  UNL1       -0.0445
      7 N           1.4039   -2.5331    0.1124 N.am    1  UNL1       -0.3094
      8 C           1.9385   -3.7701    0.1337 C.2     1  UNL1        0.2291
      9 O           1.7649   -4.5220   -0.8019 O.2     1  UNL1       -0.2743
     10 C           2.7520   -4.2190    1.3202 C.3     1  UNL1        0.0968
     11 N           3.2178   -5.5908    1.1021 N.3     1  UNL1       -0.1675
     12 C           4.4475   -5.8351    0.3443 C.3     1  UNL1        0.0250
     13 C           5.6529   -5.7307    1.2807 C.3     1  UNL1       -0.0132
     14 C           6.9179   -5.9820    0.5011 C.ar    1  UNL1       -0.0461
     15 C           7.4102   -7.2678    0.3783 C.ar    1  UNL1       -0.0585
     16 C           8.5705   -7.4983   -0.3368 C.ar    1  UNL1       -0.0615
     17 C           9.2383   -6.4430   -0.9295 C.ar    1  UNL1       -0.0617
     18 C           8.7455   -5.1573   -0.8074 C.ar    1  UNL1       -0.0615
     19 C           7.5829   -4.9273   -0.0959 C.ar    1  UNL1       -0.0585
     20 S           2.3542   -6.8653    1.7123 S.O2    1  UNL1        0.0614
     21 O           3.2689   -7.9452    1.8402 O.2     1  UNL1       -0.1528
     22 O           1.5989   -6.3533    2.8016 O.2     1  UNL1       -0.1528
     23 C           1.1891   -7.3435    0.4800 C.ar    1  UNL1        0.1092
     24 C          -0.0652   -6.7636    0.4551 C.ar    1  UNL1       -0.0317
     25 C          -0.9833   -7.1358   -0.5097 C.ar    1  UNL1       -0.0145
     26 C          -0.6465   -8.0915   -1.4543 C.ar    1  UNL1        0.1616
     27 O          -1.5481   -8.4583   -2.4040 O.3     1  UNL1       -0.4915
     28 C          -2.8247   -7.8172   -2.3688 C.3     1  UNL1        0.0790
     29 C           0.6170   -8.6751   -1.4294 C.ar    1  UNL1        0.1633
     30 O           0.9525   -9.6134   -2.3549 O.3     1  UNL1       -0.4914
     31 C           2.2661  -10.1693   -2.2684 C.3     1  UNL1        0.0790
     32 C           1.5337   -8.2940   -0.4634 C.ar    1  UNL1        0.0101
     33 H           1.0053    1.8021    0.0021 H       1  UNL1        0.0523
     34 H          -0.5445    1.7859   -0.8732 H       1  UNL1        0.0523
     35 H          -0.5275    1.7763    0.9067 H       1  UNL1        0.0523
     36 H           0.1385   -0.2506   -2.0447 H       1  UNL1        0.0578
     37 H           1.6883   -0.2344   -1.1694 H       1  UNL1        0.0578
     38 H          -1.4235   -2.2357   -1.7295 H       1  UNL1        0.0248
     39 H          -0.8626   -3.6479   -0.8024 H       1  UNL1        0.0248
     40 H          -1.2507   -2.1280    0.0388 H       1  UNL1        0.0248
     41 H           1.5428   -1.9317    0.8607 H       1  UNL1        0.1491
     42 H           3.6107   -3.5589    1.4427 H       1  UNL1        0.0539
     43 H           2.1352   -4.1832    2.2182 H       1  UNL1        0.0539
     44 H           4.4126   -6.8328   -0.0932 H       1  UNL1        0.0447
     45 H           4.5386   -5.0934   -0.4493 H       1  UNL1        0.0447
     46 H           5.6879   -4.7330    1.7182 H       1  UNL1        0.0326
     47 H           5.5618   -6.4724    2.0743 H       1  UNL1        0.0326
     48 H           6.8885   -8.0923    0.8414 H       1  UNL1        0.0620
     49 H           8.9556   -8.5029   -0.4321 H       1  UNL1        0.0618
     50 H          10.1453   -6.6230   -1.4876 H       1  UNL1        0.0618
     51 H           9.2674   -4.3328   -1.2702 H       1  UNL1        0.0618
     52 H           7.1978   -3.9228   -0.0006 H       1  UNL1        0.0620
     53 H          -0.3290   -6.0184    1.1909 H       1  UNL1        0.0638
     54 H          -1.9630   -6.6817   -0.5266 H       1  UNL1        0.0656
     55 H          -3.4461   -8.2002   -3.1782 H       1  UNL1        0.0660
     56 H          -3.3072   -8.0207   -1.4128 H       1  UNL1        0.0660
     57 H          -2.6945   -6.7416   -2.4884 H       1  UNL1        0.0660
     58 H           2.3924  -10.6543   -1.3004 H       1  UNL1        0.0660
     59 H           2.4034  -10.9027   -3.0630 H       1  UNL1        0.0660
     60 H           3.0046   -9.3748   -2.3757 H       1  UNL1        0.0660
     61 H           2.5147   -8.7453   -0.4419 H       1  UNL1        0.0675
@<TRIPOS>BOND
     1     1     2    1
     2     1    33    1
     3     1    34    1
     4     1    35    1
     5     2     3    1
     6     3     4    1
     7     3    36    1
     8     3    37    1
     9     4     5    1
    10     4     6    1
    11     4     7    1
    12     6    38    1
    13     6    39    1
    14     6    40    1
    15     7     8   am
    16     7    41    1
    17     8     9    2
    18     8    10    1
    19    10    11    1
    20    10    42    1
    21    10    43    1
    22    11    12    1
    23    20    11    1
    24    12    13    1
    25    12    44    1
    26    12    45    1
    27    13    14    1
    28    13    46    1
    29    13    47    1
    30    14    19   ar
    31    14    15   ar
    32    15    16   ar
    33    15    48    1
    34    16    17   ar
    35    16    49    1
    36    17    18   ar
    37    17    50    1
    38    18    19   ar
    39    18    51    1
    40    19    52    1
    41    20    21    2
    42    20    22    2
    43    20    23    1
    44    23    32   ar
    45    23    24   ar
    46    24    25   ar
    47    24    53    1
    48    25    26   ar
    49    25    54    1
    50    26    27    1
    51    26    29   ar
    52    27    28    1
    53    28    55    1
    54    28    56    1
    55    28    57    1
    56    29    30    1
    57    29    32   ar
    58    30    31    1
    59    31    58    1
    60    31    59    1
    61    31    60    1
    62    32    61    1
