@<TRIPOS>MOLECULE
ZINC000012609436
 55 56 0 0 0
SMALL
GASTEIGER

@<TRIPOS>ATOM
      1 C          -0.0187    1.5258    0.0104 C.3     1  UNL1       -0.0507
      2 C           0.0021   -0.0041    0.0020 C.3     1  UNL1        0.0177
      3 N           0.6878   -0.4765   -1.2033 N.3     1  UNL1       -0.1771
      4 C           2.1478   -0.5966   -1.2159 C.3     1  UNL1        0.0177
      5 C           2.5532   -1.9514   -0.6319 C.3     1  UNL1       -0.0507
      6 S          -0.1875   -0.8749   -2.5515 S.O2    1  UNL1        0.0609
      7 O           0.6166   -1.7761   -3.3001 O.2     1  UNL1       -0.1528
      8 O          -1.4970   -1.1925   -2.1004 O.2     1  UNL1       -0.1528
      9 C          -0.3375    0.5853   -3.5262 C.ar    1  UNL1        0.1074
     10 C          -1.4062    1.4393   -3.3286 C.ar    1  UNL1       -0.0318
     11 C          -1.5290    2.5873   -4.0904 C.ar    1  UNL1       -0.0163
     12 C          -0.5801    2.8839   -5.0541 C.ar    1  UNL1        0.1409
     13 O          -0.6995    4.0126   -5.8036 O.3     1  UNL1       -0.4933
     14 C          -1.8294    4.8478   -5.5433 C.3     1  UNL1        0.0789
     15 C           0.4977    2.0235   -5.2540 C.ar    1  UNL1        0.0716
     16 N           1.4602    2.3185   -6.2264 N.pl3   1  UNL1       -0.3325
     17 C           2.5924    1.4126   -6.4349 C.3     1  UNL1        0.0859
     18 C           3.4749    1.9551   -7.5295 C.2     1  UNL1        0.2304
     19 O           3.1864    2.9959   -8.0811 O.2     1  UNL1       -0.2741
     20 N           4.5846    1.2835   -7.8954 N.am    1  UNL1       -0.3099
     21 C           5.4425    1.8109   -8.9595 C.3     1  UNL1        0.0369
     22 C           6.6072    0.8790   -9.1739 C.ar    1  UNL1       -0.0303
     23 C           7.7748    1.0551   -8.4552 C.ar    1  UNL1       -0.0571
     24 C           8.8432    0.2003   -8.6519 C.ar    1  UNL1       -0.0615
     25 C           8.7438   -0.8309   -9.5671 C.ar    1  UNL1       -0.0617
     26 C           7.5760   -1.0076  -10.2852 C.ar    1  UNL1       -0.0615
     27 C           6.5060   -0.1554  -10.0854 C.ar    1  UNL1       -0.0571
     28 C           0.6171    0.8770   -4.4829 C.ar    1  UNL1       -0.0109
     29 H           1.0039    1.9031    0.0027 H       1  UNL1        0.0243
     30 H          -0.5459    1.8868   -0.8726 H       1  UNL1        0.0243
     31 H          -0.5289    1.8773    0.9072 H       1  UNL1        0.0243
     32 H           0.5293   -0.3651    0.8851 H       1  UNL1        0.0441
     33 H          -1.0205   -0.3814    0.0098 H       1  UNL1        0.0441
     34 H           2.5098   -0.5199   -2.2412 H       1  UNL1        0.0441
     35 H           2.5833    0.2026   -0.6162 H       1  UNL1        0.0441
     36 H           3.6395   -2.0407   -0.6413 H       1  UNL1        0.0243
     37 H           2.1912   -2.0280    0.3934 H       1  UNL1        0.0243
     38 H           2.1177   -2.7506   -1.2316 H       1  UNL1        0.0243
     39 H          -2.1475    1.2094   -2.5776 H       1  UNL1        0.0638
     40 H          -2.3655    3.2522   -3.9337 H       1  UNL1        0.0655
     41 H          -1.8039    5.7112   -6.2081 H       1  UNL1        0.0660
     42 H          -2.7458    4.2834   -5.7159 H       1  UNL1        0.0660
     43 H          -1.8005    5.1857   -4.5075 H       1  UNL1        0.0660
     44 H           1.3775    3.1228   -6.7623 H       1  UNL1        0.1467
     45 H           3.1669    1.3306   -5.5122 H       1  UNL1        0.0557
     46 H           2.2222    0.4281   -6.7211 H       1  UNL1        0.0557
     47 H           4.8154    0.4511   -7.4542 H       1  UNL1        0.1491
     48 H           4.8680    1.8928   -9.8822 H       1  UNL1        0.0512
     49 H           5.8127    2.7953   -8.6733 H       1  UNL1        0.0512
     50 H           7.8524    1.8608   -7.7402 H       1  UNL1        0.0621
     51 H           9.7556    0.3384   -8.0908 H       1  UNL1        0.0618
     52 H           9.5788   -1.4983   -9.7213 H       1  UNL1        0.0618
     53 H           7.4985   -1.8131  -11.0005 H       1  UNL1        0.0618
     54 H           5.5936   -0.2935  -10.6464 H       1  UNL1        0.0621
     55 H           1.4514    0.2082   -4.6349 H       1  UNL1        0.0657
@<TRIPOS>BOND
     1     1     2    1
     2     1    29    1
     3     1    30    1
     4     1    31    1
     5     2     3    1
     6     2    32    1
     7     2    33    1
     8     3     4    1
     9     6     3    1
    10     4     5    1
    11     4    34    1
    12     4    35    1
    13     5    36    1
    14     5    37    1
    15     5    38    1
    16     6     7    2
    17     6     8    2
    18     6     9    1
    19     9    28   ar
    20     9    10   ar
    21    10    11   ar
    22    10    39    1
    23    11    12   ar
    24    11    40    1
    25    12    13    1
    26    12    15   ar
    27    13    14    1
    28    14    41    1
    29    14    42    1
    30    14    43    1
    31    15    16    1
    32    15    28   ar
    33    16    17    1
    34    16    44    1
    35    17    18    1
    36    17    45    1
    37    17    46    1
    38    18    19    2
    39    18    20   am
    40    20    21    1
    41    20    47    1
    42    21    22    1
    43    21    48    1
    44    21    49    1
    45    22    27   ar
    46    22    23   ar
    47    23    24   ar
    48    23    50    1
    49    24    25   ar
    50    24    51    1
    51    25    26   ar
    52    25    52    1
    53    26    27   ar
    54    26    53    1
    55    27    54    1
    56    28    55    1
