@<TRIPOS>MOLECULE
ZINC000408607381
 59 61 0 0 0
SMALL
GASTEIGER

@<TRIPOS>ATOM
      1 C          -0.0187    1.5258    0.0104 C.3     1  UNL1       -0.0466
      2 C           0.0021   -0.0041    0.0020 C.3     1  UNL1        0.0206
      3 H          -1.0205   -0.3814    0.0098 H       1  UNL1        0.0495
      4 C           0.7421   -0.5109    1.2415 C.3     1  UNL1       -0.0308
      5 C           0.6554   -2.0374    1.2986 C.3     1  UNL1       -0.0260
      6 C           1.3843   -2.5366    2.5195 C.ar    1  UNL1       -0.0473
      7 C           2.7305   -2.8414    2.4443 C.ar    1  UNL1       -0.0586
      8 C           3.3991   -3.2993    3.5642 C.ar    1  UNL1       -0.0615
      9 C           2.7216   -3.4520    4.7594 C.ar    1  UNL1       -0.0617
     10 C           1.3755   -3.1464    4.8348 C.ar    1  UNL1       -0.0615
     11 C           0.7079   -2.6844    3.7160 C.ar    1  UNL1       -0.0586
     12 N           0.6878   -0.4765   -1.2033 N.am    1  UNL1       -0.3116
     13 C           0.0062   -0.6081   -2.3585 C.2     1  UNL1        0.2290
     14 O          -1.1748   -0.3355   -2.4003 O.2     1  UNL1       -0.2743
     15 C           0.7116   -1.0941   -3.5984 C.3     1  UNL1        0.0971
     16 N          -0.2397   -1.1502   -4.7112 N.3     1  UNL1       -0.1635
     17 C          -0.5094    0.0508   -5.5055 C.3     1  UNL1        0.0460
     18 C           0.5294    0.1799   -6.5895 C.ar    1  UNL1       -0.0317
     19 C           1.6982    0.8771   -6.3473 C.ar    1  UNL1       -0.0573
     20 C           2.6511    0.9956   -7.3417 C.ar    1  UNL1       -0.0615
     21 C           2.4354    0.4164   -8.5782 C.ar    1  UNL1       -0.0617
     22 C           1.2670   -0.2815   -8.8201 C.ar    1  UNL1       -0.0615
     23 C           0.3160   -0.4036   -7.8244 C.ar    1  UNL1       -0.0573
     24 S          -1.0101   -2.5712   -5.0711 S.O2    1  UNL1        0.0616
     25 O          -1.3936   -2.4850   -6.4367 O.2     1  UNL1       -0.1528
     26 O          -0.1908   -3.6129   -4.5582 O.2     1  UNL1       -0.1528
     27 C          -2.5032   -2.6064   -4.1362 C.ar    1  UNL1        0.1056
     28 C          -2.5112   -3.1554   -2.8675 C.ar    1  UNL1       -0.0340
     29 C          -3.6821   -3.1833   -2.1337 C.ar    1  UNL1       -0.0415
     30 C          -4.8463   -2.6616   -2.6691 C.ar    1  UNL1        0.0411
     31 CL         -6.3173   -2.6958   -1.7478 Cl      1  UNL1       -0.0835
     32 C          -4.8377   -2.1123   -3.9389 C.ar    1  UNL1       -0.0415
     33 C          -3.6648   -2.0799   -4.6695 C.ar    1  UNL1       -0.0340
     34 H           1.0039    1.9031    0.0027 H       1  UNL1        0.0247
     35 H          -0.5459    1.8868   -0.8726 H       1  UNL1        0.0247
     36 H          -0.5289    1.8773    0.9072 H       1  UNL1        0.0247
     37 H           1.7879   -0.2080    1.1895 H       1  UNL1        0.0286
     38 H           0.2852   -0.0874    2.1360 H       1  UNL1        0.0286
     39 H          -0.3904   -2.3402    1.3506 H       1  UNL1        0.0314
     40 H           1.1123   -2.4609    0.4042 H       1  UNL1        0.0314
     41 H           3.2599   -2.7220    1.5106 H       1  UNL1        0.0620
     42 H           4.4507   -3.5381    3.5053 H       1  UNL1        0.0618
     43 H           3.2437   -3.8105    5.6342 H       1  UNL1        0.0618
     44 H           0.8461   -3.2660    5.7685 H       1  UNL1        0.0618
     45 H          -0.3437   -2.4456    3.7749 H       1  UNL1        0.0620
     46 H           1.6324   -0.6946   -1.1699 H       1  UNL1        0.1490
     47 H           1.5220   -0.4092   -3.8474 H       1  UNL1        0.0539
     48 H           1.1190   -2.0889   -3.4183 H       1  UNL1        0.0539
     49 H          -1.4983   -0.0269   -5.9573 H       1  UNL1        0.0493
     50 H          -0.4726    0.9288   -4.8605 H       1  UNL1        0.0493
     51 H           1.8667    1.3296   -5.3812 H       1  UNL1        0.0621
     52 H           3.5640    1.5409   -7.1526 H       1  UNL1        0.0618
     53 H           3.1796    0.5095   -9.3553 H       1  UNL1        0.0618
     54 H           1.0983   -0.7337   -9.7863 H       1  UNL1        0.0618
     55 H          -0.5969   -0.9489   -8.0134 H       1  UNL1        0.0621
     56 H          -1.6025   -3.5629   -2.4498 H       1  UNL1        0.0637
     57 H          -3.6884   -3.6125   -1.1427 H       1  UNL1        0.0633
     58 H          -5.7462   -1.7052   -4.3575 H       1  UNL1        0.0633
     59 H          -3.6578   -1.6508   -5.6606 H       1  UNL1        0.0637
@<TRIPOS>BOND
     1     1     2    1
     2     1    34    1
     3     1    35    1
     4     1    36    1
     5     2     3    1
     6     2     4    1
     7     2    12    1
     8     4     5    1
     9     4    37    1
    10     4    38    1
    11     5     6    1
    12     5    39    1
    13     5    40    1
    14     6    11   ar
    15     6     7   ar
    16     7     8   ar
    17     7    41    1
    18     8     9   ar
    19     8    42    1
    20     9    10   ar
    21     9    43    1
    22    10    11   ar
    23    10    44    1
    24    11    45    1
    25    12    13   am
    26    12    46    1
    27    13    14    2
    28    13    15    1
    29    15    16    1
    30    15    47    1
    31    15    48    1
    32    16    17    1
    33    24    16    1
    34    17    18    1
    35    17    49    1
    36    17    50    1
    37    18    23   ar
    38    18    19   ar
    39    19    20   ar
    40    19    51    1
    41    20    21   ar
    42    20    52    1
    43    21    22   ar
    44    21    53    1
    45    22    23   ar
    46    22    54    1
    47    23    55    1
    48    24    25    2
    49    24    26    2
    50    24    27    1
    51    27    33   ar
    52    27    28   ar
    53    28    29   ar
    54    28    56    1
    55    29    30   ar
    56    29    57    1
    57    30    31    1
    58    30    32   ar
    59    32    33   ar
    60    32    58    1
    61    33    59    1
