@<TRIPOS>MOLECULE
ZINC000065363929
 49 50 0 0 0
SMALL
GASTEIGER

@<TRIPOS>ATOM
      1 C           0.3995    1.1640    0.6098 C.3     1  UNL1       -0.0362
      2 C           0.1625   -0.3237    0.3424 C.3     1  UNL1        0.1190
      3 H           0.6605   -0.6101   -0.5839 H       1  UNL1        0.0611
      4 C           0.7199   -1.1343    1.4839 C.2     1  UNL1        0.2379
      5 O          -0.0277   -1.6079    2.3132 O.2     1  UNL1       -0.2735
      6 N           2.0492   -1.3331    1.5832 N.am    1  UNL1       -0.2898
      7 C           2.9660   -0.8529    0.5378 C.3     1  UNL1        0.0550
      8 C           4.0928   -0.0590    1.2070 C.3     1  UNL1       -0.0159
      9 N           4.7299   -0.8889    2.2373 N.4     1  UNL1        0.2353
     10 H           5.0478   -1.7522    1.8229 H       1  UNL1        0.2032
     11 C           5.8777   -0.1679    2.8037 C.3     1  UNL1       -0.0430
     12 C           3.7675   -1.1861    3.3057 C.3     1  UNL1       -0.0159
     13 C           2.6251   -2.0309    2.7432 C.3     1  UNL1        0.0550
     14 N          -1.2757   -0.5750    0.2215 N.pl3   1  UNL1       -0.1960
     15 C          -2.1429   -0.1731    1.2400 C.ar    1  UNL1        0.0522
     16 C          -2.3944    1.1770    1.4477 C.ar    1  UNL1       -0.0390
     17 C          -3.2529    1.5709    2.4555 C.ar    1  UNL1       -0.0594
     18 C          -3.8616    0.6230    3.2571 C.ar    1  UNL1       -0.0500
     19 C          -3.6131   -0.7222    3.0533 C.ar    1  UNL1        0.0566
     20 C          -4.2790   -1.7518    3.9295 C.3     1  UNL1        0.4175
     21 F          -5.0945   -1.1091    4.8670 F       1  UNL1       -0.1659
     22 F          -5.0586   -2.6029    3.1389 F       1  UNL1       -0.1659
     23 F          -3.3019   -2.4992    4.5958 F       1  UNL1       -0.1659
     24 C          -2.7605   -1.1232    2.0439 C.ar    1  UNL1       -0.0274
     25 S          -1.8733   -1.3356   -1.1226 S.O2    1  UNL1        0.0432
     26 C          -1.9455   -3.0873   -0.6569 C.3     1  UNL1        0.0738
     27 O          -3.1830   -0.8050   -1.2724 O.2     1  UNL1       -0.1552
     28 O          -0.8793   -1.1243   -2.1158 O.2     1  UNL1       -0.1552
     29 H           1.4699    1.3521    0.6935 H       1  UNL1        0.0253
     30 H          -0.0093    1.7507   -0.2128 H       1  UNL1        0.0253
     31 H          -0.0932    1.4491    1.5394 H       1  UNL1        0.0253
     32 H           3.3862   -1.7030    0.0003 H       1  UNL1        0.0517
     33 H           2.4256   -0.2084   -0.1555 H       1  UNL1        0.0517
     34 H           4.8331    0.2229    0.4583 H       1  UNL1        0.0830
     35 H           3.6809    0.8391    1.6672 H       1  UNL1        0.0830
     36 H           5.5360    0.7665    3.2489 H       1  UNL1        0.0778
     37 H           6.3515   -0.7830    3.5687 H       1  UNL1        0.0778
     38 H           6.5971    0.0476    2.0137 H       1  UNL1        0.0778
     39 H           4.2681   -1.7348    4.1035 H       1  UNL1        0.0830
     40 H           3.3654   -0.2539    3.7024 H       1  UNL1        0.0830
     41 H           1.8599   -2.1676    3.5073 H       1  UNL1        0.0517
     42 H           3.0084   -3.0010    2.4268 H       1  UNL1        0.0517
     43 H          -1.9189    1.9179    0.8222 H       1  UNL1        0.0636
     44 H          -3.4485    2.6206    2.6178 H       1  UNL1        0.0618
     45 H          -4.5325    0.9337    4.0444 H       1  UNL1        0.0623
     46 H          -2.5668   -2.1738    1.8853 H       1  UNL1        0.0642
     47 H          -2.7124   -3.2295    0.1045 H       1  UNL1        0.0482
     48 H          -2.1890   -3.6867   -1.5342 H       1  UNL1        0.0482
     49 H          -0.9786   -3.3983   -0.2614 H       1  UNL1        0.0482
@<TRIPOS>UNITY_ATOM_ATTR
9 1
charge 1
@<TRIPOS>BOND
     1     1     2    1
     2     1    29    1
     3     1    30    1
     4     1    31    1
     5     2     3    1
     6     2     4    1
     7     2    14    1
     8     4     5    2
     9     4     6   am
    10     6    13    1
    11     6     7    1
    12     7     8    1
    13     7    32    1
    14     7    33    1
    15     8     9    1
    16     8    34    1
    17     8    35    1
    18     9    10    1
    19     9    11    1
    20     9    12    1
    21    11    36    1
    22    11    37    1
    23    11    38    1
    24    12    13    1
    25    12    39    1
    26    12    40    1
    27    13    41    1
    28    13    42    1
    29    14    15    1
    30    25    14    1
    31    15    24   ar
    32    15    16   ar
    33    16    17   ar
    34    16    43    1
    35    17    18   ar
    36    17    44    1
    37    18    19   ar
    38    18    45    1
    39    19    20    1
    40    19    24   ar
    41    20    21    1
    42    20    22    1
    43    20    23    1
    44    24    46    1
    45    25    26    1
    46    25    27    2
    47    25    28    2
    48    26    47    1
    49    26    48    1
    50    26    49    1
