@<TRIPOS>MOLECULE
ZINC000053891755
 43 45 0 0 0
SMALL
GASTEIGER

@<TRIPOS>ATOM
      1 N          -0.1458    1.8618    0.8451 N.am    1  UNL1       -0.3291
      2 C           0.1346    0.6289    1.3117 C.2     1  UNL1        0.2151
      3 O           1.0997    0.4557    2.0256 O.2     1  UNL1       -0.2757
      4 C          -0.7509   -0.5345    0.9466 C.3     1  UNL1        0.0525
      5 H          -0.7834   -0.6681   -0.1347 H       1  UNL1        0.0410
      6 C          -0.2681   -1.8326    1.6459 C.3     1  UNL1       -0.0246
      7 C          -1.5812   -2.6508    1.7239 C.3     1  UNL1        0.0157
      8 N          -2.6319   -1.6530    1.9960 N.am    1  UNL1       -0.2968
      9 C          -3.8183   -1.9024    2.5848 C.2     1  UNL1        0.2472
     10 O          -4.5715   -0.9847    2.8471 O.2     1  UNL1       -0.2700
     11 C          -4.2033   -3.2897    2.9112 C.ar    1  UNL1        0.0446
     12 C          -3.9069   -4.3268    2.0270 C.ar    1  UNL1       -0.0490
     13 C          -4.2691   -5.6215    2.3370 C.ar    1  UNL1       -0.0610
     14 C          -4.9272   -5.9003    3.5231 C.ar    1  UNL1       -0.0611
     15 C          -5.2288   -4.8863    4.4105 C.ar    1  UNL1       -0.0533
     16 C          -4.8662   -3.5748    4.1186 C.ar    1  UNL1       -0.0058
     17 C          -5.1879   -2.4835    5.0681 C.ar    1  UNL1       -0.0171
     18 C          -4.1742   -1.6614    5.5590 C.ar    1  UNL1       -0.0535
     19 C          -4.4799   -0.6469    6.4430 C.ar    1  UNL1       -0.0495
     20 C          -5.7889   -0.4446    6.8423 C.ar    1  UNL1        0.0548
     21 C          -6.1160    0.6652    7.8079 C.3     1  UNL1        0.4174
     22 F          -6.3980    1.8355    7.0952 F       1  UNL1       -0.1659
     23 F          -7.2308    0.3046    8.5724 F       1  UNL1       -0.1659
     24 F          -5.0228    0.8856    8.6527 F       1  UNL1       -0.1659
     25 C          -6.7988   -1.2567    6.3583 C.ar    1  UNL1       -0.0495
     26 C          -6.5061   -2.2711    5.4698 C.ar    1  UNL1       -0.0535
     27 C          -2.1721   -0.3385    1.5154 C.3     1  UNL1        0.0261
     28 H           0.4242    2.6106    1.0801 H       1  UNL1        0.1449
     29 H          -0.9154    1.9996    0.2709 H       1  UNL1        0.1449
     30 H           0.4780   -2.3480    1.0410 H       1  UNL1        0.0288
     31 H           0.1189   -1.6189    2.6422 H       1  UNL1        0.0288
     32 H          -1.7719   -3.1535    0.7757 H       1  UNL1        0.0465
     33 H          -1.5282   -3.3768    2.5352 H       1  UNL1        0.0465
     34 H          -3.3945   -4.1164    1.0998 H       1  UNL1        0.0625
     35 H          -4.0383   -6.4225    1.6503 H       1  UNL1        0.0618
     36 H          -5.2066   -6.9173    3.7554 H       1  UNL1        0.0618
     37 H          -5.7422   -5.1118    5.3336 H       1  UNL1        0.0624
     38 H          -3.1519   -1.8187    5.2483 H       1  UNL1        0.0624
     39 H          -3.6956   -0.0097    6.8242 H       1  UNL1        0.0623
     40 H          -7.8189   -1.0940    6.6736 H       1  UNL1        0.0623
     41 H          -7.2954   -2.9043    5.0923 H       1  UNL1        0.0624
     42 H          -2.1430    0.3696    2.3435 H       1  UNL1        0.0472
     43 H          -2.8415    0.0262    0.7363 H       1  UNL1        0.0472
@<TRIPOS>BOND
     1     1     2   am
     2     1    28    1
     3     1    29    1
     4     2     3    2
     5     2     4    1
     6     4     5    1
     7     4    27    1
     8     4     6    1
     9     6     7    1
    10     6    30    1
    11     6    31    1
    12     7     8    1
    13     7    32    1
    14     7    33    1
    15     8     9   am
    16     8    27    1
    17     9    10    2
    18     9    11    1
    19    11    16   ar
    20    11    12   ar
    21    12    13   ar
    22    12    34    1
    23    13    14   ar
    24    13    35    1
    25    14    15   ar
    26    14    36    1
    27    15    16   ar
    28    15    37    1
    29    16    17    1
    30    17    26   ar
    31    17    18   ar
    32    18    19   ar
    33    18    38    1
    34    19    20   ar
    35    19    39    1
    36    20    21    1
    37    20    25   ar
    38    21    22    1
    39    21    23    1
    40    21    24    1
    41    25    26   ar
    42    25    40    1
    43    26    41    1
    44    27    42    1
    45    27    43    1
