@<TRIPOS>MOLECULE
ZINC000822662146
 37 38 0 0 0
SMALL
GASTEIGER

@<TRIPOS>ATOM
      1 C           0.1586    1.8495   -0.1753 C.3     1  UNL1       -0.0598
      2 C           0.1857    0.3253   -0.0445 C.3     1  UNL1       -0.0082
      3 C           0.7276   -0.2879   -1.3373 C.3     1  UNL1        0.0034
      4 H           1.6992    0.1493   -1.5674 H       1  UNL1        0.0903
      5 N          -0.2057   -0.0138   -2.4381 N.4     1  UNL1        0.2368
      6 H          -1.0773   -0.4925   -2.2671 H       1  UNL1        0.2024
      7 H          -0.3735    0.9794   -2.4973 H       1  UNL1        0.2024
      8 C           0.3742   -0.4887   -3.7014 C.3     1  UNL1        0.0102
      9 C          -0.5244   -0.0959   -4.8457 C.ar    1  UNL1        0.0865
     10 C          -0.2640    1.0693   -5.5506 C.ar    1  UNL1       -0.0352
     11 C          -1.0929    1.4271   -6.6023 C.ar    1  UNL1       -0.0576
     12 C          -2.1607    0.5999   -6.9134 C.ar    1  UNL1       -0.0291
     13 CA         -2.3625   -0.5565   -6.1617 C.ar    1  UNL1        0.1522
     14 C          -3.4976   -1.4502   -6.4807 C.2     1  UNL1        0.4044
     15 O          -4.2539   -1.1731   -7.4003 O.co2   1  UNL1       -0.2389
     16 OXT        -3.6792   -2.4656   -5.8248 O.co2   1  UNL1       -0.2389
     17 N          -1.5412   -0.8654   -5.1650 N.ar    1  UNL1       -0.2396
     18 C           0.8755   -1.7775   -1.1632 C.ar    1  UNL1        0.0030
     19 C          -0.2210   -2.6180   -1.2797 C.ar    1  UNL1       -0.0351
     20 C          -0.0470   -3.9789   -1.1136 C.ar    1  UNL1        0.0280
     21 N           1.1437   -4.4791   -0.8470 N.ar    1  UNL1       -0.2632
     22 C           2.2084   -3.7101   -0.7292 C.ar    1  UNL1        0.0280
     23 C           2.1124   -2.3406   -0.8884 C.ar    1  UNL1       -0.0351
     24 H           1.1498    2.2080   -0.4526 H       1  UNL1        0.0232
     25 H          -0.5595    2.1355   -0.9438 H       1  UNL1        0.0232
     26 H          -0.1340    2.2907    0.7775 H       1  UNL1        0.0232
     27 H           0.8292    0.0435    0.7889 H       1  UNL1        0.0321
     28 H          -0.8246   -0.0419    0.1362 H       1  UNL1        0.0321
     29 H           1.3576   -0.0399   -3.8412 H       1  UNL1        0.0882
     30 H           0.4710   -1.5740   -3.6715 H       1  UNL1        0.0882
     31 H           0.5764    1.6924   -5.2825 H       1  UNL1        0.0637
     32 H          -0.9111    2.3300   -7.1663 H       1  UNL1        0.0619
     33 H          -2.8271    0.8480   -7.7263 H       1  UNL1        0.0641
     34 H          -1.1988   -2.2143   -1.4972 H       1  UNL1        0.0637
     35 H          -0.8960   -4.6404   -1.2028 H       1  UNL1        0.0829
     36 H           3.1673   -4.1560   -0.5099 H       1  UNL1        0.0829
     37 H           2.9881   -1.7160   -0.7911 H       1  UNL1        0.0637
@<TRIPOS>UNITY_ATOM_ATTR
5 1
charge 1
@<TRIPOS>BOND
     1     1     2    1
     2     1    24    1
     3     1    25    1
     4     1    26    1
     5     2     3    1
     6     2    27    1
     7     2    28    1
     8     3     4    1
     9     3     5    1
    10     3    18    1
    11     5     6    1
    12     5     7    1
    13     5     8    1
    14     8     9    1
    15     8    29    1
    16     8    30    1
    17     9    17   ar
    18     9    10   ar
    19    10    11   ar
    20    10    31    1
    21    11    12   ar
    22    11    32    1
    23    12    13   ar
    24    12    33    1
    25    13    14    1
    26    13    17   ar
    27    14    15   ar
    28    14    16   ar
    29    18    23   ar
    30    18    19   ar
    31    19    20   ar
    32    19    34    1
    33    20    21   ar
    34    20    35    1
    35    21    22   ar
    36    22    23   ar
    37    22    36    1
    38    23    37    1
