@<TRIPOS>MOLECULE
ZINC000053202973
 39 40 0 0 0
SMALL
GASTEIGER

@<TRIPOS>ATOM
      1 C          -0.0178    1.4648    0.0101 C.3     1  UNL1       -0.0446
      2 N           0.0021   -0.0041    0.0020 N.4     1  UNL1        0.2279
      3 H           0.4901   -0.3383    0.8195 H       1  UNL1        0.2014
      4 H          -0.9445   -0.3533    0.0092 H       1  UNL1        0.2014
      5 C           0.6897   -0.4778   -1.2066 C.3     1  UNL1       -0.0082
      6 H           0.2162   -0.0450   -2.0878 H       1  UNL1        0.0864
      7 C           2.1596   -0.0549   -1.1569 C.3     1  UNL1       -0.0073
      8 C           2.8692   -0.5196   -2.4308 C.3     1  UNL1       -0.0334
      9 C           2.8084   -2.0479   -2.5159 C.3     1  UNL1        0.0209
     10 N           1.4049   -2.4715   -2.4182 N.3     1  UNL1       -0.1712
     11 S           0.7384   -3.4556   -3.5713 S.O2    1  UNL1        0.0610
     12 O          -0.6647   -3.2353   -3.5247 O.2     1  UNL1       -0.1528
     13 O           1.5144   -3.2774   -4.7483 O.2     1  UNL1       -0.1528
     14 C           0.9984   -5.1189   -3.0511 C.ar    1  UNL1        0.1055
     15 C           2.1467   -5.7896   -3.4284 C.ar    1  UNL1       -0.0348
     16 C           2.3507   -7.0945   -3.0202 C.ar    1  UNL1       -0.0483
     17 C           1.4065   -7.7285   -2.2344 C.ar    1  UNL1        0.0549
     18 C           1.6287   -9.1512   -1.7898 C.3     1  UNL1        0.4174
     19 F           2.3087   -9.1570   -0.5673 F       1  UNL1       -0.1659
     20 F           0.3937   -9.7910   -1.6395 F       1  UNL1       -0.1659
     21 F           2.3898   -9.8263   -2.7501 F       1  UNL1       -0.1659
     22 C           0.2588   -7.0573   -1.8559 C.ar    1  UNL1       -0.0483
     23 C           0.0567   -5.7512   -2.2609 C.ar    1  UNL1       -0.0348
     24 C           0.6034   -2.0056   -1.2783 C.3     1  UNL1        0.0633
     25 H           1.0047    1.8421    0.0024 H       1  UNL1        0.0777
     26 H          -0.5450    1.8259   -0.8730 H       1  UNL1        0.0777
     27 H          -0.5280    1.8163    0.9069 H       1  UNL1        0.0777
     28 H           2.2229    1.0306   -1.0814 H       1  UNL1        0.0321
     29 H           2.6386   -0.5077   -0.2888 H       1  UNL1        0.0321
     30 H           2.3753   -0.0868   -3.3008 H       1  UNL1        0.0280
     31 H           3.9103   -0.1978   -2.4053 H       1  UNL1        0.0280
     32 H           3.2242   -2.3777   -3.4680 H       1  UNL1        0.0444
     33 H           3.3792   -2.4826   -1.6954 H       1  UNL1        0.0444
     34 H           2.8843   -5.2943   -4.0423 H       1  UNL1        0.0637
     35 H           3.2475   -7.6187   -3.3156 H       1  UNL1        0.0624
     36 H          -0.4786   -7.5525   -1.2417 H       1  UNL1        0.0624
     37 H          -0.8400   -5.2268   -1.9652 H       1  UNL1        0.0637
     38 H           0.9942   -2.4366   -0.3565 H       1  UNL1        0.0500
     39 H          -0.4350   -2.3079   -1.4139 H       1  UNL1        0.0500
@<TRIPOS>UNITY_ATOM_ATTR
2 1
charge 1
@<TRIPOS>BOND
     1     1     2    1
     2     1    25    1
     3     1    26    1
     4     1    27    1
     5     2     3    1
     6     2     4    1
     7     2     5    1
     8     5     6    1
     9     5    24    1
    10     5     7    1
    11     7     8    1
    12     7    28    1
    13     7    29    1
    14     8     9    1
    15     8    30    1
    16     8    31    1
    17     9    10    1
    18     9    32    1
    19     9    33    1
    20    11    10    1
    21    10    24    1
    22    11    12    2
    23    11    13    2
    24    11    14    1
    25    14    23   ar
    26    14    15   ar
    27    15    16   ar
    28    15    34    1
    29    16    17   ar
    30    16    35    1
    31    17    18    1
    32    17    22   ar
    33    18    19    1
    34    18    20    1
    35    18    21    1
    36    22    23   ar
    37    22    36    1
    38    23    37    1
    39    24    38    1
    40    24    39    1
