@<TRIPOS>MOLECULE
ZINC000009052241
 49 51 0 0 0
SMALL
GASTEIGER

@<TRIPOS>ATOM
      1 C           0.7999    3.8017   -1.6795 C.3     1  UNL1        0.0790
      2 O           0.6187    2.4277   -1.3312 O.3     1  UNL1       -0.4915
      3 C           1.1272    1.5015   -2.1874 C.ar    1  UNL1        0.1615
      4 C           1.7907    1.9065   -3.3340 C.ar    1  UNL1       -0.0160
      5 C           2.3076    0.9634   -4.2033 C.ar    1  UNL1       -0.0548
      6 C           2.1634   -0.3840   -3.9314 C.ar    1  UNL1       -0.0422
      7 C           2.7282   -1.4075   -4.8825 C.3     1  UNL1       -0.0112
      8 C           4.1658   -1.7407   -4.4783 C.3     1  UNL1        0.0279
      9 N           4.7148   -2.7357   -5.4029 N.am    1  UNL1       -0.2222
     10 C           4.6195   -4.0585   -5.2267 C.2     1  UNL1        0.3107
     11 O           4.0654   -4.5754   -4.2765 O.2     1  UNL1       -0.2521
     12 N           5.2055   -4.7526   -6.2190 N.am    1  UNL1       -0.2632
     13 C           5.7520   -3.7608   -7.1612 C.3     1  UNL1        0.2776
     14 N           7.2078   -3.8918   -7.2605 N.am    1  UNL1       -0.2796
     15 C           7.9237   -2.9658   -7.9287 C.2     1  UNL1        0.2182
     16 O           7.3744   -1.9815   -8.3763 O.2     1  UNL1       -0.2754
     17 C           9.4067   -3.1535   -8.1198 C.3     1  UNL1        0.0357
     18 C           9.9070   -3.4272   -9.5395 C.3     1  UNL1       -0.0412
     19 C          10.1632   -2.0672   -8.8870 C.3     1  UNL1       -0.0412
     20 C           5.1043   -3.9132   -8.5389 C.3     1  UNL1        0.4365
     21 F           3.7126   -3.8531   -8.4091 F       1  UNL1       -0.1662
     22 F           5.5396   -2.8800   -9.3757 F       1  UNL1       -0.1662
     23 F           5.4683   -5.1457   -9.0917 F       1  UNL1       -0.1662
     24 C           5.3732   -2.4316   -6.5387 C.2     1  UNL1        0.2742
     25 O           5.6169   -1.3251   -6.9701 O.2     1  UNL1       -0.2706
     26 C           1.5025   -0.7950   -2.7884 C.ar    1  UNL1       -0.0131
     27 C           0.9870    0.1446   -1.9107 C.ar    1  UNL1        0.1617
     28 O           0.3368   -0.2579   -0.7861 O.3     1  UNL1       -0.4914
     29 C           0.2216   -1.6661   -0.5722 C.3     1  UNL1        0.0790
     30 H           1.8653    4.0213   -1.7496 H       1  UNL1        0.0660
     31 H           0.3244    3.9988   -2.6403 H       1  UNL1        0.0660
     32 H           0.3484    4.4331   -0.9143 H       1  UNL1        0.0660
     33 H           1.9041    2.9588   -3.5491 H       1  UNL1        0.0655
     34 H           2.8247    1.2805   -5.0969 H       1  UNL1        0.0621
     35 H           2.1213   -2.3121   -4.8450 H       1  UNL1        0.0329
     36 H           2.7195   -1.0058   -5.8957 H       1  UNL1        0.0329
     37 H           4.7727   -0.8361   -4.5157 H       1  UNL1        0.0473
     38 H           4.1745   -2.1424   -3.4651 H       1  UNL1        0.0473
     39 H           5.2584   -5.7179   -6.2983 H       1  UNL1        0.1530
     40 H           7.6564   -4.6449   -6.8453 H       1  UNL1        0.1515
     41 H           9.9279   -3.6453   -7.2986 H       1  UNL1        0.0394
     42 H          10.7576   -4.0994   -9.6526 H       1  UNL1        0.0273
     43 H           9.1635   -3.4715  -10.3354 H       1  UNL1        0.0273
     44 H           9.5882   -1.2168   -9.2536 H       1  UNL1        0.0273
     45 H          11.1823   -1.8447   -8.5708 H       1  UNL1        0.0273
     46 H           1.3913   -1.8485   -2.5782 H       1  UNL1        0.0658
     47 H          -0.3169   -1.8496    0.3575 H       1  UNL1        0.0660
     48 H          -0.3227   -2.1164   -1.4023 H       1  UNL1        0.0660
     49 H           1.2167   -2.1066   -0.5087 H       1  UNL1        0.0660
@<TRIPOS>BOND
     1     1     2    1
     2     1    30    1
     3     1    31    1
     4     1    32    1
     5     2     3    1
     6     3    27   ar
     7     3     4   ar
     8     4     5   ar
     9     4    33    1
    10     5     6   ar
    11     5    34    1
    12     6     7    1
    13     6    26   ar
    14     7     8    1
    15     7    35    1
    16     7    36    1
    17     8     9    1
    18     8    37    1
    19     8    38    1
    20     9    24   am
    21     9    10   am
    22    10    11    2
    23    10    12   am
    24    12    13    1
    25    12    39    1
    26    13    14    1
    27    13    20    1
    28    13    24    1
    29    14    15   am
    30    14    40    1
    31    15    16    2
    32    15    17    1
    33    17    19    1
    34    17    18    1
    35    17    41    1
    36    18    19    1
    37    18    42    1
    38    18    43    1
    39    19    44    1
    40    19    45    1
    41    20    21    1
    42    20    22    1
    43    20    23    1
    44    24    25    2
    45    26    27   ar
    46    26    46    1
    47    27    28    1
    48    28    29    1
    49    29    47    1
    50    29    48    1
    51    29    49    1
