@<TRIPOS>MOLECULE
ZINC000000380223
 31 32 0 0 0
SMALL
GASTEIGER

@<TRIPOS>ATOM
      1 O           0.0021   -0.0041    0.0020 O.2     1  UNL1       -0.1528
      2 S          -0.0172    1.4168    0.0098 S.O2    1  UNL1        0.0610
      3 O           1.1617    2.2101    0.0028 O.2     1  UNL1       -0.1528
      4 C          -0.9567    1.9094   -1.3970 C.ar    1  UNL1        0.1055
      5 C          -1.8848    1.0442   -1.9458 C.ar    1  UNL1       -0.0348
      6 C          -2.6219    1.4307   -3.0496 C.ar    1  UNL1       -0.0483
      7 C          -2.4313    2.6825   -3.6042 C.ar    1  UNL1        0.0549
      8 C          -3.2345    3.1036   -4.8078 C.3     1  UNL1        0.4174
      9 F          -4.4138    3.7273   -4.3864 F       1  UNL1       -0.1659
     10 F          -2.4843    3.9973   -5.5796 F       1  UNL1       -0.1659
     11 F          -3.5510    1.9771   -5.5746 F       1  UNL1       -0.1659
     12 C          -1.5042    3.5481   -3.0546 C.ar    1  UNL1       -0.0483
     13 C          -0.7699    3.1631   -1.9485 C.ar    1  UNL1       -0.0348
     14 N          -0.8748    1.8654    1.3536 N.3     1  UNL1       -0.1722
     15 C          -0.6862    3.1905    1.9650 C.3     1  UNL1        0.0440
     16 C          -2.0636    3.8365    2.1535 C.3     1  UNL1        0.0621
     17 O          -2.9169    2.9292    2.8551 O.3     1  UNL1       -0.3771
     18 C          -3.1690    1.7060    2.1593 C.3     1  UNL1        0.0621
     19 C          -1.8524    0.9531    1.9678 C.3     1  UNL1        0.0440
     20 H          -2.0336    0.0662   -1.5125 H       1  UNL1        0.0637
     21 H          -3.3464    0.7545   -3.4788 H       1  UNL1        0.0624
     22 H          -1.3556    4.5263   -3.4877 H       1  UNL1        0.0624
     23 H          -0.0456    3.8394   -1.5191 H       1  UNL1        0.0637
     24 H          -0.1961    3.0820    2.9326 H       1  UNL1        0.0466
     25 H          -0.0752    3.8129    1.3112 H       1  UNL1        0.0466
     26 H          -1.9586    4.7564    2.7288 H       1  UNL1        0.0573
     27 H          -2.4959    4.0631    1.1788 H       1  UNL1        0.0573
     28 H          -3.8594    1.0931    2.7388 H       1  UNL1        0.0573
     29 H          -3.6053    1.9248    1.1847 H       1  UNL1        0.0573
     30 H          -2.0126    0.0927    1.3180 H       1  UNL1        0.0466
     31 H          -1.4768    0.6185    2.9348 H       1  UNL1        0.0466
@<TRIPOS>BOND
     1     1     2    2
     2     2     3    2
     3     2     4    1
     4     2    14    1
     5     4    13   ar
     6     4     5   ar
     7     5     6   ar
     8     5    20    1
     9     6     7   ar
    10     6    21    1
    11     7     8    1
    12     7    12   ar
    13     8     9    1
    14     8    10    1
    15     8    11    1
    16    12    13   ar
    17    12    22    1
    18    13    23    1
    19    14    19    1
    20    14    15    1
    21    15    16    1
    22    15    24    1
    23    15    25    1
    24    16    17    1
    25    16    26    1
    26    16    27    1
    27    17    18    1
    28    18    19    1
    29    18    28    1
    30    18    29    1
    31    19    30    1
    32    19    31    1
