@<TRIPOS>MOLECULE
ZINC000015228213
 57 58 0 0 0
SMALL
GASTEIGER

@<TRIPOS>ATOM
      1 C          -0.0173    1.4248    0.0099 C.3     1  UNL1        0.0790
      2 O           0.0021   -0.0041    0.0020 O.3     1  UNL1       -0.4915
      3 C          -1.2011   -0.6379    0.0101 C.ar    1  UNL1        0.1616
      4 C          -2.3739    0.0992    0.0195 C.ar    1  UNL1       -0.0145
      5 C          -3.5965   -0.5469    0.0272 C.ar    1  UNL1       -0.0317
      6 C          -3.6519   -1.9279    0.0261 C.ar    1  UNL1        0.1092
      7 S          -5.2128   -2.7451    0.0365 S.O2    1  UNL1        0.0614
      8 O          -4.9848   -4.0390    0.5779 O.2     1  UNL1       -0.1528
      9 O          -6.1440   -1.8246    0.5888 O.2     1  UNL1       -0.1528
     10 N          -5.6586   -2.9707   -1.5423 N.3     1  UNL1       -0.1675
     11 C          -5.2674   -4.1945   -2.2462 C.3     1  UNL1        0.0250
     12 C          -6.4026   -5.2168   -2.1613 C.3     1  UNL1       -0.0132
     13 C          -6.0002   -6.4756   -2.8854 C.ar    1  UNL1       -0.0461
     14 C          -6.2771   -6.6168   -4.2323 C.ar    1  UNL1       -0.0585
     15 C          -5.9079   -7.7716   -4.8965 C.ar    1  UNL1       -0.0615
     16 C          -5.2614   -8.7850   -4.2138 C.ar    1  UNL1       -0.0617
     17 C          -4.9837   -8.6434   -2.8671 C.ar    1  UNL1       -0.0615
     18 C          -5.3491   -7.4869   -2.2039 C.ar    1  UNL1       -0.0585
     19 C          -6.4442   -1.9465   -2.2351 C.3     1  UNL1        0.0968
     20 C          -5.5191   -1.0372   -3.0022 C.2     1  UNL1        0.2290
     21 O          -4.3214   -1.2261   -2.9730 O.2     1  UNL1       -0.2743
     22 N          -6.0226   -0.0141   -3.7206 N.am    1  UNL1       -0.3119
     23 C          -5.1232    0.8698   -4.4663 C.3     1  UNL1        0.0175
     24 C          -4.8188    0.2526   -5.8328 C.3     1  UNL1       -0.0469
     25 C          -5.7919    2.2323   -4.6597 C.3     1  UNL1       -0.0469
     26 C          -2.4848   -2.6697    0.0163 C.ar    1  UNL1        0.0101
     27 C          -1.2569   -2.0287    0.0032 C.ar    1  UNL1        0.1633
     28 O          -0.1082   -2.7567   -0.0065 O.3     1  UNL1       -0.4914
     29 C          -0.2418   -4.1795   -0.0024 C.3     1  UNL1        0.0790
     30 H           1.0053    1.8021    0.0021 H       1  UNL1        0.0660
     31 H          -0.5445    1.7859   -0.8732 H       1  UNL1        0.0660
     32 H          -0.5275    1.7763    0.9067 H       1  UNL1        0.0660
     33 H          -2.3334    1.1784    0.0211 H       1  UNL1        0.0656
     34 H          -4.5102    0.0290    0.0345 H       1  UNL1        0.0638
     35 H          -5.0643   -3.9631   -3.2918 H       1  UNL1        0.0447
     36 H          -4.3707   -4.6081   -1.7848 H       1  UNL1        0.0447
     37 H          -6.6057   -5.4482   -1.1157 H       1  UNL1        0.0326
     38 H          -7.2993   -4.8031   -2.6227 H       1  UNL1        0.0326
     39 H          -6.7821   -5.8251   -4.7656 H       1  UNL1        0.0620
     40 H          -6.1249   -7.8822   -5.9487 H       1  UNL1        0.0618
     41 H          -4.9737   -9.6874   -4.7326 H       1  UNL1        0.0618
     42 H          -4.4789   -9.4353   -2.3337 H       1  UNL1        0.0618
     43 H          -5.1321   -7.3763   -1.1517 H       1  UNL1        0.0620
     44 H          -7.1377   -2.4260   -2.9260 H       1  UNL1        0.0539
     45 H          -7.0045   -1.3625   -1.5049 H       1  UNL1        0.0539
     46 H          -6.9805    0.1370   -3.7440 H       1  UNL1        0.1490
     47 H          -4.1946    0.9965   -3.9099 H       1  UNL1        0.0493
     48 H          -4.3425   -0.7181   -5.6950 H       1  UNL1        0.0247
     49 H          -5.7475    0.1259   -6.3892 H       1  UNL1        0.0247
     50 H          -4.1497    0.9102   -6.3876 H       1  UNL1        0.0247
     51 H          -6.0088    2.6721   -3.6862 H       1  UNL1        0.0247
     52 H          -5.1227    2.8900   -5.2145 H       1  UNL1        0.0247
     53 H          -6.7206    2.1056   -5.2161 H       1  UNL1        0.0247
     54 H          -2.5308   -3.7487    0.0154 H       1  UNL1        0.0675
     55 H          -0.7788   -4.4914    0.8934 H       1  UNL1        0.0660
     56 H          -0.7960   -4.4949   -0.8864 H       1  UNL1        0.0660
     57 H           0.7473   -4.6373   -0.0110 H       1  UNL1        0.0660
@<TRIPOS>BOND
     1     1     2    1
     2     1    30    1
     3     1    31    1
     4     1    32    1
     5     2     3    1
     6     3    27   ar
     7     3     4   ar
     8     4     5   ar
     9     4    33    1
    10     5     6   ar
    11     5    34    1
    12     6     7    1
    13     6    26   ar
    14     7     8    2
    15     7     9    2
    16     7    10    1
    17    10    11    1
    18    10    19    1
    19    11    12    1
    20    11    35    1
    21    11    36    1
    22    12    13    1
    23    12    37    1
    24    12    38    1
    25    13    18   ar
    26    13    14   ar
    27    14    15   ar
    28    14    39    1
    29    15    16   ar
    30    15    40    1
    31    16    17   ar
    32    16    41    1
    33    17    18   ar
    34    17    42    1
    35    18    43    1
    36    19    20    1
    37    19    44    1
    38    19    45    1
    39    20    21    2
    40    20    22   am
    41    22    23    1
    42    22    46    1
    43    23    24    1
    44    23    25    1
    45    23    47    1
    46    24    48    1
    47    24    49    1
    48    24    50    1
    49    25    51    1
    50    25    52    1
    51    25    53    1
    52    26    27   ar
    53    26    54    1
    54    27    28    1
    55    28    29    1
    56    29    55    1
    57    29    56    1
    58    29    57    1
