@<TRIPOS>MOLECULE
ZINC000171382976
 32 33 0 0 0
SMALL
GASTEIGER

@<TRIPOS>ATOM
      1 O           0.2257    0.1672   -0.0516 O.co2   1  UNL1       -0.2460
      2 C           0.1391    1.3833   -0.0423 C.2     1  UNL1        0.3603
      3 O           1.1486    2.0666   -0.0647 O.co2   1  UNL1       -0.2460
      4 C          -1.2160    2.0420   -0.0095 C.3     1  UNL1        0.0762
      5 H          -1.5886    2.2049   -1.0208 H       1  UNL1        0.0428
      6 C          -2.2192    1.1929    0.8151 C.3     1  UNL1       -0.0242
      7 C          -3.2223    2.2727    1.2919 C.3     1  UNL1        0.0213
      8 N          -2.3947    3.4612    1.5675 N.3     1  UNL1       -0.1757
      9 S          -2.7907    4.6951    2.5986 S.O2    1  UNL1        0.0623
     10 O          -1.9312    5.7795    2.2754 O.2     1  UNL1       -0.1528
     11 O          -4.2081    4.7944    2.5797 O.2     1  UNL1       -0.1528
     12 C          -2.3497    4.1781    4.2243 C.ar    1  UNL1        0.1242
     13 C          -3.3344    3.9321    5.1622 C.ar    1  UNL1       -0.0223
     14 C          -2.9886    3.5264    6.4379 C.ar    1  UNL1        0.0567
     15 C          -4.0628    3.2583    7.4602 C.3     1  UNL1        0.4175
     16 F          -4.4484    1.9153    7.3903 F       1  UNL1       -0.1659
     17 F          -3.5690    3.5358    8.7394 F       1  UNL1       -0.1659
     18 F          -5.1685    4.0750    7.1999 F       1  UNL1       -0.1659
     19 C          -1.6579    3.3663    6.7759 C.ar    1  UNL1       -0.0486
     20 C          -0.6720    3.6121    5.8386 C.ar    1  UNL1       -0.0410
     21 C          -1.0177    4.0129    4.5605 C.ar    1  UNL1        0.0673
     22 CL          0.2199    4.3217    3.3828 Cl      1  UNL1       -0.0815
     23 C          -1.1580    3.3715    0.7719 C.3     1  UNL1        0.0336
     24 H          -2.7127    0.4516    0.1865 H       1  UNL1        0.0286
     25 H          -1.7248    0.7175    1.6623 H       1  UNL1        0.0286
     26 H          -3.9478    2.4893    0.5077 H       1  UNL1        0.0444
     27 H          -3.7296    1.9450    2.1992 H       1  UNL1        0.0444
     28 H          -4.3743    4.0570    4.8987 H       1  UNL1        0.0643
     29 H          -1.3884    3.0494    7.7725 H       1  UNL1        0.0623
     30 H           0.3676    3.4869    6.1027 H       1  UNL1        0.0633
     31 H          -0.2912    3.3730    1.4327 H       1  UNL1        0.0452
     32 H          -1.1007    4.2117    0.0799 H       1  UNL1        0.0452
@<TRIPOS>BOND
     1     1     2   ar
     2     2     3   ar
     3     2     4    1
     4     4     5    1
     5     4    23    1
     6     4     6    1
     7     6     7    1
     8     6    24    1
     9     6    25    1
    10     7     8    1
    11     7    26    1
    12     7    27    1
    13     9     8    1
    14     8    23    1
    15     9    10    2
    16     9    11    2
    17     9    12    1
    18    12    21   ar
    19    12    13   ar
    20    13    14   ar
    21    13    28    1
    22    14    15    1
    23    14    19   ar
    24    15    16    1
    25    15    17    1
    26    15    18    1
    27    19    20   ar
    28    19    29    1
    29    20    21   ar
    30    20    30    1
    31    21    22    1
    32    23    31    1
    33    23    32    1
