@<TRIPOS>MOLECULE
ZINC000085423431
 33 34 0 0 0
SMALL
GASTEIGER

@<TRIPOS>ATOM
      1 O          -1.1527    2.3622    1.2456 O.2     1  UNL1       -0.1528
      2 S          -0.3200    1.7525    0.2688 S.O2    1  UNL1        0.0614
      3 O           0.0258    0.3744    0.2932 O.2     1  UNL1       -0.1528
      4 C          -1.0857    2.0457   -1.2908 C.ar    1  UNL1        0.1176
      5 C          -0.6377    3.0742   -2.0981 C.ar    1  UNL1       -0.0232
      6 C          -1.2385    3.3044   -3.3219 C.ar    1  UNL1        0.0567
      7 C          -0.7504    4.4261   -4.2019 C.3     1  UNL1        0.4175
      8 F           0.2561    3.9501   -5.0490 F       1  UNL1       -0.1659
      9 F          -1.8139    4.9134   -4.9692 F       1  UNL1       -0.1659
     10 F          -0.2403    5.4562   -3.4044 F       1  UNL1       -0.1659
     11 C          -2.2866    2.5053   -3.7383 C.ar    1  UNL1       -0.0495
     12 C          -2.7344    1.4762   -2.9310 C.ar    1  UNL1       -0.0477
     13 C          -2.1310    1.2434   -1.7095 C.ar    1  UNL1        0.0811
     14 C          -2.6191    0.1217   -0.8295 C.3     1  UNL1        0.4192
     15 F          -3.7657   -0.4482   -1.3933 F       1  UNL1       -0.1658
     16 F          -1.6208   -0.8521   -0.7185 F       1  UNL1       -0.1658
     17 F          -2.9240    0.6239    0.4401 F       1  UNL1       -0.1658
     18 N           1.1068    2.5930    0.2801 N.3     1  UNL1       -0.1766
     19 C           2.3829    2.1224   -0.2781 C.3     1  UNL1        0.0205
     20 C           3.4318    3.2235   -0.0152 C.3     1  UNL1       -0.0373
     21 C           2.8205    4.0085    1.1754 C.3     1  UNL1       -0.0373
     22 C           1.3062    3.9396    0.8459 C.3     1  UNL1        0.0205
     23 H           0.1814    3.6984   -1.7728 H       1  UNL1        0.0643
     24 H          -2.7559    2.6850   -4.6943 H       1  UNL1        0.0623
     25 H          -3.5536    0.8520   -3.2563 H       1  UNL1        0.0624
     26 H           2.6845    1.1980    0.2144 H       1  UNL1        0.0444
     27 H           2.2799    1.9570   -1.3505 H       1  UNL1        0.0444
     28 H           4.3899    2.7848    0.2634 H       1  UNL1        0.0278
     29 H           3.5407    3.8684   -0.8871 H       1  UNL1        0.0278
     30 H           3.0406    3.5158    2.1224 H       1  UNL1        0.0278
     31 H           3.1703    5.0409    1.1834 H       1  UNL1        0.0278
     32 H           1.0412    4.7060    0.1175 H       1  UNL1        0.0444
     33 H           0.7147    4.0573    1.7539 H       1  UNL1        0.0444
@<TRIPOS>BOND
     1     1     2    2
     2     2     3    2
     3     2     4    1
     4     2    18    1
     5     4    13   ar
     6     4     5   ar
     7     5     6   ar
     8     5    23    1
     9     6     7    1
    10     6    11   ar
    11     7     8    1
    12     7     9    1
    13     7    10    1
    14    11    12   ar
    15    11    24    1
    16    12    13   ar
    17    12    25    1
    18    13    14    1
    19    14    15    1
    20    14    16    1
    21    14    17    1
    22    18    22    1
    23    18    19    1
    24    19    20    1
    25    19    26    1
    26    19    27    1
    27    20    21    1
    28    20    28    1
    29    20    29    1
    30    21    22    1
    31    21    30    1
    32    21    31    1
    33    22    32    1
    34    22    33    1
