@<TRIPOS>MOLECULE
ZINC000007971016
 47 49 0 0 0
SMALL
GASTEIGER

@<TRIPOS>ATOM
      1 O           0.6445    1.2768    0.6986 O.2     1  UNL1       -0.2737
      2 C          -0.0372    1.4026   -0.2967 C.2     1  UNL1        0.2361
      3 N           0.4355    0.9992   -1.4926 N.am    1  UNL1       -0.2842
      4 C           1.7487    0.5289   -1.6034 C.ar    1  UNL1        0.0335
      5 C           2.0829   -0.3719   -2.6061 C.ar    1  UNL1       -0.0399
      6 C           3.3800   -0.8341   -2.7128 C.ar    1  UNL1       -0.0484
      7 C           4.3453   -0.4013   -1.8222 C.ar    1  UNL1        0.0549
      8 C           5.7595   -0.9081   -1.9412 C.3     1  UNL1        0.4174
      9 F           6.4892   -0.0613   -2.7824 F       1  UNL1       -0.1659
     10 F           6.3540   -0.9331   -0.6751 F       1  UNL1       -0.1659
     11 F           5.7482   -2.2006   -2.4767 F       1  UNL1       -0.1659
     12 C           4.0158    0.4960   -0.8230 C.ar    1  UNL1       -0.0484
     13 C           2.7218    0.9664   -0.7145 C.ar    1  UNL1       -0.0399
     14 C          -1.4151    2.0044   -0.1951 C.3     1  UNL1        0.1081
     15 H          -1.6763    2.4808   -1.1401 H       1  UNL1        0.0576
     16 C          -1.4393    3.0453    0.9286 C.3     1  UNL1       -0.0272
     17 C          -2.8710    3.5512    1.1191 C.3     1  UNL1       -0.0499
     18 C          -3.7767    2.3850    1.5214 C.3     1  UNL1       -0.0385
     19 C          -3.7789    1.3366    0.4044 C.3     1  UNL1        0.0213
     20 N          -2.3915    0.9504    0.1116 N.3     1  UNL1       -0.1647
     21 S          -1.9365   -0.6417    0.1333 S.O2    1  UNL1        0.0615
     22 O          -3.1143   -1.3991   -0.1085 O.2     1  UNL1       -0.1528
     23 O          -0.7716   -0.7371   -0.6748 O.2     1  UNL1       -0.1528
     24 C          -1.4324   -1.0177    1.7792 C.ar    1  UNL1        0.1055
     25 C          -0.1137   -0.8428    2.1552 C.ar    1  UNL1       -0.0353
     26 C           0.2818   -1.1378    3.4465 C.ar    1  UNL1       -0.0599
     27 C          -0.6414   -1.6073    4.3620 C.ar    1  UNL1       -0.0616
     28 C          -1.9603   -1.7813    3.9862 C.ar    1  UNL1       -0.0599
     29 C          -2.3567   -1.4823    2.6961 C.ar    1  UNL1       -0.0353
     30 H          -0.1347    1.0347   -2.2765 H       1  UNL1        0.1549
     31 H           1.3294   -0.7108   -3.3015 H       1  UNL1        0.0636
     32 H           3.6406   -1.5347   -3.4923 H       1  UNL1        0.0624
     33 H           4.7719    0.8321   -0.1290 H       1  UNL1        0.0624
     34 H           2.4650    1.6672    0.0661 H       1  UNL1        0.0636
     35 H          -1.0883    2.5894    1.8544 H       1  UNL1        0.0286
     36 H          -0.7904    3.8805    0.6649 H       1  UNL1        0.0286
     37 H          -2.8870    4.3100    1.9015 H       1  UNL1        0.0266
     38 H          -3.2302    3.9847    0.1858 H       1  UNL1        0.0266
     39 H          -3.4037    1.9353    2.4416 H       1  UNL1        0.0278
     40 H          -4.7914    2.7501    1.6797 H       1  UNL1        0.0278
     41 H          -4.3420    0.4607    0.7265 H       1  UNL1        0.0444
     42 H          -4.2354    1.7580   -0.4913 H       1  UNL1        0.0444
     43 H           0.6077   -0.4761    1.4400 H       1  UNL1        0.0637
     44 H           1.3123   -1.0018    3.7400 H       1  UNL1        0.0618
     45 H          -0.3323   -1.8384    5.3706 H       1  UNL1        0.0618
     46 H          -2.6816   -2.1484    4.7014 H       1  UNL1        0.0618
     47 H          -3.3871   -1.6182    2.4026 H       1  UNL1        0.0637
@<TRIPOS>BOND
     1     1     2    2
     2     2     3   am
     3     2    14    1
     4     3     4    1
     5     3    30    1
     6     4    13   ar
     7     4     5   ar
     8     5     6   ar
     9     5    31    1
    10     6     7   ar
    11     6    32    1
    12     7     8    1
    13     7    12   ar
    14     8     9    1
    15     8    10    1
    16     8    11    1
    17    12    13   ar
    18    12    33    1
    19    13    34    1
    20    14    15    1
    21    14    20    1
    22    14    16    1
    23    16    17    1
    24    16    35    1
    25    16    36    1
    26    17    18    1
    27    17    37    1
    28    17    38    1
    29    18    19    1
    30    18    39    1
    31    18    40    1
    32    19    20    1
    33    19    41    1
    34    19    42    1
    35    21    20    1
    36    21    22    2
    37    21    23    2
    38    21    24    1
    39    24    29   ar
    40    24    25   ar
    41    25    26   ar
    42    25    43    1
    43    26    27   ar
    44    26    44    1
    45    27    28   ar
    46    27    45    1
    47    28    29   ar
    48    28    46    1
    49    29    47    1
