@<TRIPOS>MOLECULE
ZINC000408636477
 51 53 0 0 0
SMALL
GASTEIGER

@<TRIPOS>ATOM
      1 C          -2.1982  -12.4013    5.7946 C.3     1  UNL1       -0.0307
      2 C          -1.3878  -11.1659    5.3970 C.3     1  UNL1        0.0868
      3 O          -1.6145  -10.8714    4.0172 O.3     1  UNL1       -0.4922
      4 C          -0.9642   -9.7955    3.5011 C.ar    1  UNL1        0.1206
      5 C          -0.1207   -9.0422    4.3047 C.ar    1  UNL1       -0.0181
      6 C           0.5396   -7.9492    3.7775 C.ar    1  UNL1       -0.0319
      7 C           0.3600   -7.6056    2.4504 C.ar    1  UNL1        0.1057
      8 S           1.2032   -6.2106    1.7812 S.O2    1  UNL1        0.0616
      9 O           0.4342   -5.7721    0.6696 O.2     1  UNL1       -0.1528
     10 O           1.5272   -5.3718    2.8815 O.2     1  UNL1       -0.1528
     11 N           2.6422   -6.7551    1.1687 N.3     1  UNL1       -0.1635
     12 C           3.7984   -6.9219    2.0528 C.3     1  UNL1        0.0971
     13 C           3.8695   -8.3521    2.5223 C.2     1  UNL1        0.2290
     14 O           3.0365   -9.1532    2.1546 O.2     1  UNL1       -0.2743
     15 N           4.8589   -8.7410    3.3507 N.am    1  UNL1       -0.3114
     16 C           4.9281  -10.1314    3.8071 C.3     1  UNL1        0.0233
     17 C           6.3010  -10.8067    3.8094 C.3     1  UNL1       -0.0328
     18 C           5.6437  -10.4054    5.1314 C.3     1  UNL1       -0.0328
     19 C           2.7590   -7.0699   -0.2573 C.3     1  UNL1        0.0460
     20 C           3.3279   -5.8817   -0.9891 C.ar    1  UNL1       -0.0317
     21 C           2.4810   -4.9748   -1.5984 C.ar    1  UNL1       -0.0573
     22 C           3.0029   -3.8849   -2.2696 C.ar    1  UNL1       -0.0615
     23 C           4.3716   -3.7016   -2.3313 C.ar    1  UNL1       -0.0617
     24 C           5.2185   -4.6080   -1.7213 C.ar    1  UNL1       -0.0615
     25 C           4.6965   -5.6956   -1.0464 C.ar    1  UNL1       -0.0573
     26 C          -0.4797   -8.3550    1.6473 C.ar    1  UNL1       -0.0319
     27 C          -1.1382   -9.4520    2.1683 C.ar    1  UNL1       -0.0181
     28 H          -1.8879  -13.2507    5.1861 H       1  UNL1        0.0262
     29 H          -2.0253  -12.6259    6.8471 H       1  UNL1        0.0262
     30 H          -3.2587  -12.2073    5.6340 H       1  UNL1        0.0262
     31 H          -1.6981  -10.3165    6.0056 H       1  UNL1        0.0694
     32 H          -0.3273  -11.3599    5.5577 H       1  UNL1        0.0694
     33 H           0.0194   -9.3098    5.3416 H       1  UNL1        0.0655
     34 H           1.1963   -7.3625    4.4027 H       1  UNL1        0.0638
     35 H           4.7099   -6.6719    1.5099 H       1  UNL1        0.0539
     36 H           3.6956   -6.2615    2.9138 H       1  UNL1        0.0539
     37 H           5.5252   -8.1003    3.6448 H       1  UNL1        0.1490
     38 H           4.0633  -10.7492    3.5651 H       1  UNL1        0.0498
     39 H           6.3397  -11.8691    3.5686 H       1  UNL1        0.0284
     40 H           7.1527  -10.2165    3.4713 H       1  UNL1        0.0284
     41 H           6.0630   -9.5512    5.6631 H       1  UNL1        0.0284
     42 H           5.2499  -11.2038    5.7604 H       1  UNL1        0.0284
     43 H           3.4197   -7.9271   -0.3872 H       1  UNL1        0.0493
     44 H           1.7738   -7.3065   -0.6591 H       1  UNL1        0.0493
     45 H           1.4116   -5.1180   -1.5502 H       1  UNL1        0.0621
     46 H           2.3412   -3.1768   -2.7462 H       1  UNL1        0.0618
     47 H           4.7794   -2.8505   -2.8564 H       1  UNL1        0.0618
     48 H           6.2879   -4.4650   -1.7698 H       1  UNL1        0.0618
     49 H           5.3582   -6.4038   -0.5698 H       1  UNL1        0.0621
     50 H          -0.6181   -8.0847    0.6108 H       1  UNL1        0.0638
     51 H          -1.7940  -10.0370    1.5406 H       1  UNL1        0.0655
@<TRIPOS>BOND
     1     1     2    1
     2     1    28    1
     3     1    29    1
     4     1    30    1
     5     2     3    1
     6     2    31    1
     7     2    32    1
     8     3     4    1
     9     4    27   ar
    10     4     5   ar
    11     5     6   ar
    12     5    33    1
    13     6     7   ar
    14     6    34    1
    15     7     8    1
    16     7    26   ar
    17     8     9    2
    18     8    10    2
    19     8    11    1
    20    11    12    1
    21    11    19    1
    22    12    13    1
    23    12    35    1
    24    12    36    1
    25    13    14    2
    26    13    15   am
    27    15    16    1
    28    15    37    1
    29    16    18    1
    30    16    17    1
    31    16    38    1
    32    17    18    1
    33    17    39    1
    34    17    40    1
    35    18    41    1
    36    18    42    1
    37    19    20    1
    38    19    43    1
    39    19    44    1
    40    20    25   ar
    41    20    21   ar
    42    21    22   ar
    43    21    45    1
    44    22    23   ar
    45    22    46    1
    46    23    24   ar
    47    23    47    1
    48    24    25   ar
    49    24    48    1
    50    25    49    1
    51    26    27   ar
    52    26    50    1
    53    27    51    1
