@<TRIPOS>MOLECULE
ZINC000029789750
 43 45 0 0 0
SMALL
GASTEIGER

@<TRIPOS>ATOM
      1 C          -0.7640    1.6691   -1.4309 C.3     1  UNL1       -0.0372
      2 C          -0.8393    0.1413   -1.4013 C.3     1  UNL1        0.0716
      3 H          -1.5230   -0.2047   -2.1765 H       1  UNL1        0.0609
      4 C           0.5552   -0.4450   -1.6496 C.3     1  UNL1        0.0411
      5 N           0.4930   -1.8989   -1.4311 N.am    1  UNL1       -0.2929
      6 C           0.9746   -2.7597   -2.3495 C.2     1  UNL1        0.2473
      7 O           1.3768   -2.3451   -3.4193 O.2     1  UNL1       -0.2700
      8 C           1.0138   -4.2061   -2.0565 C.ar    1  UNL1        0.0446
      9 C           1.5436   -4.6637   -0.8502 C.ar    1  UNL1       -0.0490
     10 C           1.5778   -6.0166   -0.5815 C.ar    1  UNL1       -0.0610
     11 C           1.0889   -6.9268   -1.5035 C.ar    1  UNL1       -0.0611
     12 C           0.5608   -6.4921   -2.7030 C.ar    1  UNL1       -0.0533
     13 C           0.5118   -5.1312   -2.9897 C.ar    1  UNL1       -0.0058
     14 C          -0.0541   -4.6602   -4.2757 C.ar    1  UNL1       -0.0171
     15 C          -1.1053   -3.7441   -4.2841 C.ar    1  UNL1       -0.0535
     16 C          -1.6282   -3.3092   -5.4848 C.ar    1  UNL1       -0.0495
     17 C          -1.1116   -3.7803   -6.6785 C.ar    1  UNL1        0.0548
     18 C          -1.6872   -3.3014   -7.9864 C.3     1  UNL1        0.4174
     19 F          -0.9987   -2.1590   -8.4084 F       1  UNL1       -0.1659
     20 F          -1.5562   -4.3073   -8.9497 F       1  UNL1       -0.1659
     21 F          -3.0410   -2.9932   -7.8150 F       1  UNL1       -0.1659
     22 C          -0.0685   -4.6889   -6.6765 C.ar    1  UNL1       -0.0495
     23 C           0.4662   -5.1270   -5.4822 C.ar    1  UNL1       -0.0535
     24 C          -0.1100   -2.3851   -0.1800 C.3     1  UNL1        0.0385
     25 C          -1.4721   -1.7043   -0.0033 C.3     1  UNL1        0.0638
     26 O          -1.3108   -0.2888   -0.1220 O.3     1  UNL1       -0.3737
     27 H          -0.0802    2.0143   -0.6555 H       1  UNL1        0.0255
     28 H          -0.4028    1.9962   -2.4059 H       1  UNL1        0.0255
     29 H          -1.7555    2.0853   -1.2525 H       1  UNL1        0.0255
     30 H           0.8619   -0.2407   -2.6754 H       1  UNL1        0.0490
     31 H           1.2693    0.0002   -0.9568 H       1  UNL1        0.0490
     32 H           1.9272   -3.9594   -0.1269 H       1  UNL1        0.0625
     33 H           1.9886   -6.3679    0.3535 H       1  UNL1        0.0618
     34 H           1.1213   -7.9836   -1.2832 H       1  UNL1        0.0618
     35 H           0.1816   -7.2082   -3.4170 H       1  UNL1        0.0624
     36 H          -1.5096   -3.3759   -3.3528 H       1  UNL1        0.0624
     37 H          -2.4426   -2.5999   -5.4926 H       1  UNL1        0.0623
     38 H           0.3307   -5.0532   -7.6116 H       1  UNL1        0.0623
     39 H           1.2808   -5.8362   -5.4818 H       1  UNL1        0.0624
     40 H          -0.2437   -3.4656   -0.2326 H       1  UNL1        0.0487
     41 H           0.5371   -2.1353    0.6608 H       1  UNL1        0.0487
     42 H          -2.1583   -2.0577   -0.7729 H       1  UNL1        0.0575
     43 H          -1.8737   -1.9436    0.9814 H       1  UNL1        0.0575
@<TRIPOS>BOND
     1     1     2    1
     2     1    27    1
     3     1    28    1
     4     1    29    1
     5     2     3    1
     6     2    26    1
     7     2     4    1
     8     4     5    1
     9     4    30    1
    10     4    31    1
    11     5     6   am
    12     5    24    1
    13     6     7    2
    14     6     8    1
    15     8    13   ar
    16     8     9   ar
    17     9    10   ar
    18     9    32    1
    19    10    11   ar
    20    10    33    1
    21    11    12   ar
    22    11    34    1
    23    12    13   ar
    24    12    35    1
    25    13    14    1
    26    14    23   ar
    27    14    15   ar
    28    15    16   ar
    29    15    36    1
    30    16    17   ar
    31    16    37    1
    32    17    18    1
    33    17    22   ar
    34    18    19    1
    35    18    20    1
    36    18    21    1
    37    22    23   ar
    38    22    38    1
    39    23    39    1
    40    24    25    1
    41    24    40    1
    42    24    41    1
    43    25    26    1
    44    25    42    1
    45    25    43    1
