@<TRIPOS>MOLECULE
ZINC000408613100
 59 60 0 0 0
SMALL
GASTEIGER

@<TRIPOS>ATOM
      1 C          -0.0187    1.5258    0.0104 C.3     1  UNL1       -0.0507
      2 C           0.0021   -0.0041    0.0020 C.3     1  UNL1        0.0177
      3 N           0.6878   -0.4765   -1.2033 N.3     1  UNL1       -0.1771
      4 C           2.1478   -0.5966   -1.2159 C.3     1  UNL1        0.0177
      5 C           2.5532   -1.9514   -0.6319 C.3     1  UNL1       -0.0507
      6 S          -0.1875   -0.8749   -2.5515 S.O2    1  UNL1        0.0608
      7 O           0.6166   -1.7761   -3.3001 O.2     1  UNL1       -0.1528
      8 O          -1.4970   -1.1925   -2.1004 O.2     1  UNL1       -0.1528
      9 C          -0.3375    0.5853   -3.5262 C.ar    1  UNL1        0.1057
     10 C          -1.4064    1.4399   -3.3289 C.ar    1  UNL1       -0.0319
     11 C          -1.5263    2.5854   -4.0918 C.ar    1  UNL1       -0.0181
     12 C          -0.5728    2.8781   -5.0561 C.ar    1  UNL1        0.1213
     13 O          -0.6883    4.0045   -5.8076 O.3     1  UNL1       -0.4828
     14 C           0.3301    4.2420   -6.7815 C.3     1  UNL1        0.1651
     15 C           0.0367    5.5269   -7.5122 C.2     1  UNL1        0.2509
     16 O          -0.9477    6.1755   -7.2270 O.2     1  UNL1       -0.2721
     17 N           0.8681    5.9553   -8.4825 N.am    1  UNL1       -0.3097
     18 C           0.5828    7.2044   -9.1929 C.3     1  UNL1        0.0232
     19 C           1.1419    8.3839   -8.3948 C.3     1  UNL1       -0.0345
     20 C           1.2074    9.6214   -9.2923 C.3     1  UNL1       -0.0514
     21 C          -0.1987   10.1988   -9.4680 C.3     1  UNL1       -0.0530
     22 C          -0.9874    9.3300  -10.4498 C.3     1  UNL1       -0.0531
     23 C          -0.1023    8.9806  -11.6476 C.3     1  UNL1       -0.0530
     24 C           0.1903    7.4787  -11.6450 C.3     1  UNL1       -0.0514
     25 C           1.2381    7.1662  -10.5747 C.3     1  UNL1       -0.0345
     26 C           0.4989    2.0192   -5.2518 C.ar    1  UNL1       -0.0181
     27 C           0.6169    0.8775   -4.4830 C.ar    1  UNL1       -0.0319
     28 H           1.0039    1.9031    0.0027 H       1  UNL1        0.0243
     29 H          -0.5459    1.8868   -0.8726 H       1  UNL1        0.0243
     30 H          -0.5289    1.8773    0.9072 H       1  UNL1        0.0243
     31 H           0.5293   -0.3651    0.8851 H       1  UNL1        0.0441
     32 H          -1.0205   -0.3814    0.0098 H       1  UNL1        0.0441
     33 H           2.5098   -0.5199   -2.2412 H       1  UNL1        0.0441
     34 H           2.5833    0.2026   -0.6162 H       1  UNL1        0.0441
     35 H           2.1912   -2.0280    0.3934 H       1  UNL1        0.0243
     36 H           2.1177   -2.7506   -1.2316 H       1  UNL1        0.0243
     37 H           3.6395   -2.0407   -0.6413 H       1  UNL1        0.0243
     38 H          -2.1483    1.2116   -2.5781 H       1  UNL1        0.0638
     39 H          -2.3617    3.2523   -3.9379 H       1  UNL1        0.0655
     40 H           1.2971    4.3193   -6.2845 H       1  UNL1        0.0795
     41 H           0.3522    3.4164   -7.4928 H       1  UNL1        0.0795
     42 H           1.6554    5.4366   -8.7106 H       1  UNL1        0.1491
     43 H          -0.4952    7.3204   -9.3052 H       1  UNL1        0.0498
     44 H           0.4926    8.5866   -7.5431 H       1  UNL1        0.0283
     45 H           2.1428    8.1399   -8.0388 H       1  UNL1        0.0283
     46 H           1.8527   10.3700   -8.8325 H       1  UNL1        0.0266
     47 H           1.6102    9.3431  -10.2661 H       1  UNL1        0.0266
     48 H          -0.7086   10.2131   -8.5047 H       1  UNL1        0.0265
     49 H          -0.1284   11.2146   -9.8571 H       1  UNL1        0.0265
     50 H          -1.3027    8.4133   -9.9514 H       1  UNL1        0.0265
     51 H          -1.8654    9.8765  -10.7941 H       1  UNL1        0.0265
     52 H          -0.6170    9.2488  -12.5702 H       1  UNL1        0.0265
     53 H           0.8348    9.5333  -11.5805 H       1  UNL1        0.0265
     54 H          -0.7262    6.9303  -11.4274 H       1  UNL1        0.0266
     55 H           0.5691    7.1805  -12.6226 H       1  UNL1        0.0266
     56 H           2.0355    7.9080  -10.6194 H       1  UNL1        0.0283
     57 H           1.6541    6.1744  -10.7522 H       1  UNL1        0.0283
     58 H           1.2423    2.2447   -6.0021 H       1  UNL1        0.0655
     59 H           1.4512    0.2087   -4.6347 H       1  UNL1        0.0638
@<TRIPOS>BOND
     1     1     2    1
     2     1    28    1
     3     1    29    1
     4     1    30    1
     5     2     3    1
     6     2    31    1
     7     2    32    1
     8     3     4    1
     9     6     3    1
    10     4     5    1
    11     4    33    1
    12     4    34    1
    13     5    35    1
    14     5    36    1
    15     5    37    1
    16     6     7    2
    17     6     8    2
    18     6     9    1
    19     9    27   ar
    20     9    10   ar
    21    10    11   ar
    22    10    38    1
    23    11    12   ar
    24    11    39    1
    25    12    13    1
    26    12    26   ar
    27    13    14    1
    28    14    15    1
    29    14    40    1
    30    14    41    1
    31    15    16    2
    32    15    17   am
    33    17    18    1
    34    17    42    1
    35    18    25    1
    36    18    19    1
    37    18    43    1
    38    19    20    1
    39    19    44    1
    40    19    45    1
    41    20    21    1
    42    20    46    1
    43    20    47    1
    44    21    22    1
    45    21    48    1
    46    21    49    1
    47    22    23    1
    48    22    50    1
    49    22    51    1
    50    23    24    1
    51    23    52    1
    52    23    53    1
    53    24    25    1
    54    24    54    1
    55    24    55    1
    56    25    56    1
    57    25    57    1
    58    26    27   ar
    59    26    58    1
    60    27    59    1
