@<TRIPOS>MOLECULE
ZINC000409391460
 63 64 0 0 0
SMALL
GASTEIGER

@<TRIPOS>ATOM
      1 C          -0.0187    1.5258    0.0104 C.3     1  UNL1       -0.0652
      2 C           0.0021   -0.0041    0.0020 C.3     1  UNL1       -0.0542
      3 C           0.7182   -0.4975   -1.2568 C.3     1  UNL1       -0.0350
      4 C           0.7390   -2.0273   -1.2652 C.3     1  UNL1        0.0203
      5 H          -0.2789   -2.4050   -1.1679 H       1  UNL1        0.0495
      6 C           1.3429   -2.5219   -2.5810 C.3     1  UNL1       -0.0466
      7 N           1.5485   -2.5109   -0.1440 N.am    1  UNL1       -0.3116
      8 C           1.3281   -3.7388    0.3660 C.2     1  UNL1        0.2290
      9 O           0.4596   -4.4434   -0.1031 O.2     1  UNL1       -0.2743
     10 C           2.1609   -4.2362    1.5193 C.3     1  UNL1        0.0968
     11 N           1.7293   -5.5872    1.8864 N.3     1  UNL1       -0.1675
     12 C           2.2724   -6.7479    1.1764 C.3     1  UNL1        0.0250
     13 C           3.6021   -7.1584    1.8123 C.3     1  UNL1       -0.0132
     14 C           4.1607   -8.3524    1.0820 C.ar    1  UNL1       -0.0461
     15 C           3.8293   -9.6304    1.4916 C.ar    1  UNL1       -0.0585
     16 C           4.3417  -10.7256    0.8217 C.ar    1  UNL1       -0.0615
     17 C           5.1853  -10.5428   -0.2581 C.ar    1  UNL1       -0.0617
     18 C           5.5161   -9.2648   -0.6682 C.ar    1  UNL1       -0.0615
     19 C           5.0002   -8.1696   -0.0009 C.ar    1  UNL1       -0.0585
     20 S           0.6275   -5.8024    3.1038 S.O2    1  UNL1        0.0614
     21 O           0.8211   -7.1229    3.5915 O.2     1  UNL1       -0.1528
     22 O           0.7113   -4.6488    3.9293 O.2     1  UNL1       -0.1528
     23 C          -0.9738   -5.7732    2.3692 C.ar    1  UNL1        0.1092
     24 C          -1.6507   -4.5753    2.2385 C.ar    1  UNL1       -0.0317
     25 C          -2.9078   -4.5471    1.6631 C.ar    1  UNL1       -0.0145
     26 C          -3.4912   -5.7212    1.2157 C.ar    1  UNL1        0.1616
     27 O          -4.7273   -5.6952    0.6492 O.3     1  UNL1       -0.4915
     28 C          -5.3674   -4.4217    0.5469 C.3     1  UNL1        0.0790
     29 C          -2.8093   -6.9276    1.3470 C.ar    1  UNL1        0.1633
     30 O          -3.3777   -8.0828    0.9089 O.3     1  UNL1       -0.4914
     31 C          -2.6199   -9.2827    1.0761 C.3     1  UNL1        0.0790
     32 C          -1.5481   -6.9480    1.9196 C.ar    1  UNL1        0.0101
     33 H           1.0039    1.9031    0.0027 H       1  UNL1        0.0230
     34 H          -0.5459    1.8868   -0.8726 H       1  UNL1        0.0230
     35 H          -0.5289    1.8773    0.9072 H       1  UNL1        0.0230
     36 H           0.5293   -0.3651    0.8851 H       1  UNL1        0.0263
     37 H          -1.0205   -0.3814    0.0098 H       1  UNL1        0.0263
     38 H           0.1910   -0.1364   -2.1398 H       1  UNL1        0.0283
     39 H           1.7408   -0.1202   -1.2645 H       1  UNL1        0.0283
     40 H           1.3577   -3.6118   -2.5870 H       1  UNL1        0.0247
     41 H           0.7406   -2.1622   -3.4152 H       1  UNL1        0.0247
     42 H           2.3608   -2.1442   -2.6783 H       1  UNL1        0.0247
     43 H           2.2431   -1.9473    0.2312 H       1  UNL1        0.1490
     44 H           3.2108   -4.2570    1.2271 H       1  UNL1        0.0539
     45 H           2.0345   -3.5700    2.3727 H       1  UNL1        0.0539
     46 H           1.5672   -7.5765    1.2419 H       1  UNL1        0.0447
     47 H           2.4344   -6.4905    0.1297 H       1  UNL1        0.0447
     48 H           4.3072   -6.3298    1.7469 H       1  UNL1        0.0326
     49 H           3.4401   -7.4159    2.8590 H       1  UNL1        0.0326
     50 H           3.1702   -9.7732    2.3351 H       1  UNL1        0.0620
     51 H           4.0833  -11.7241    1.1421 H       1  UNL1        0.0618
     52 H           5.5863  -11.3985   -0.7810 H       1  UNL1        0.0618
     53 H           6.1754   -9.1220   -1.5116 H       1  UNL1        0.0618
     54 H           5.2586   -7.1711   -0.3214 H       1  UNL1        0.0620
     55 H          -1.1970   -3.6592    2.5868 H       1  UNL1        0.0638
     56 H          -3.4350   -3.6099    1.5627 H       1  UNL1        0.0656
     57 H          -5.4927   -3.9970    1.5430 H       1  UNL1        0.0660
     58 H          -4.7538   -3.7542   -0.0581 H       1  UNL1        0.0660
     59 H          -6.3439   -4.5425    0.0779 H       1  UNL1        0.0660
     60 H          -1.6779   -9.1960    0.5346 H       1  UNL1        0.0660
     61 H          -2.4168   -9.4396    2.1355 H       1  UNL1        0.0660
     62 H          -3.1869  -10.1279    0.6858 H       1  UNL1        0.0660
     63 H          -1.0169   -7.8827    2.0226 H       1  UNL1        0.0675
@<TRIPOS>BOND
     1     1     2    1
     2     1    33    1
     3     1    34    1
     4     1    35    1
     5     2     3    1
     6     2    36    1
     7     2    37    1
     8     3     4    1
     9     3    38    1
    10     3    39    1
    11     4     5    1
    12     4     6    1
    13     4     7    1
    14     6    40    1
    15     6    41    1
    16     6    42    1
    17     7     8   am
    18     7    43    1
    19     8     9    2
    20     8    10    1
    21    10    11    1
    22    10    44    1
    23    10    45    1
    24    11    12    1
    25    20    11    1
    26    12    13    1
    27    12    46    1
    28    12    47    1
    29    13    14    1
    30    13    48    1
    31    13    49    1
    32    14    19   ar
    33    14    15   ar
    34    15    16   ar
    35    15    50    1
    36    16    17   ar
    37    16    51    1
    38    17    18   ar
    39    17    52    1
    40    18    19   ar
    41    18    53    1
    42    19    54    1
    43    20    21    2
    44    20    22    2
    45    20    23    1
    46    23    32   ar
    47    23    24   ar
    48    24    25   ar
    49    24    55    1
    50    25    26   ar
    51    25    56    1
    52    26    27    1
    53    26    29   ar
    54    27    28    1
    55    28    57    1
    56    28    58    1
    57    28    59    1
    58    29    30    1
    59    29    32   ar
    60    30    31    1
    61    31    60    1
    62    31    61    1
    63    31    62    1
    64    32    63    1
