@<TRIPOS>MOLECULE
ZINC000012800113
 62 64 0 0 0
SMALL
GASTEIGER

@<TRIPOS>ATOM
      1 C          -0.0187    1.5258    0.0104 C.3     1  UNL1       -0.0218
      2 C           0.0021   -0.0041    0.0020 C.3     1  UNL1       -0.0266
      3 C           0.7421   -0.5109    1.2415 C.3     1  UNL1       -0.0218
      4 N          -1.3761   -0.5125    0.0124 N.4     1  UNL1        0.2371
      5 H          -1.8475   -0.1866    0.8429 H       1  UNL1        0.2036
      6 C          -1.3546   -1.9802    0.0080 C.3     1  UNL1       -0.0300
      7 C          -2.7852   -2.5153    0.1006 C.3     1  UNL1        0.0061
      8 C          -3.5915   -2.0114   -1.0998 C.3     1  UNL1        0.0327
      9 N          -4.9818   -2.4571   -0.9781 N.am    1  UNL1       -0.3119
     10 C          -5.7456   -2.5909   -2.0804 C.2     1  UNL1        0.2164
     11 O          -5.2820   -2.3422   -3.1732 O.2     1  UNL1       -0.2755
     12 C          -7.1757   -3.0494   -1.9551 C.3     1  UNL1        0.0380
     13 C          -7.9532   -2.0616   -1.0823 C.3     1  UNL1       -0.0274
     14 C          -9.3974   -2.5491   -0.9288 C.3     1  UNL1        0.0212
     15 N          -9.9716   -2.7550   -2.2654 N.3     1  UNL1       -0.1765
     16 S         -11.3983   -2.0303   -2.6915 S.O2    1  UNL1        0.0609
     17 O         -11.9489   -2.8143   -3.7410 O.2     1  UNL1       -0.1528
     18 O         -12.0886   -1.7595   -1.4793 O.2     1  UNL1       -0.1528
     19 C         -10.9984   -0.4658   -3.3965 C.ar    1  UNL1        0.1060
     20 C         -10.9029    0.6519   -2.5891 C.ar    1  UNL1       -0.0353
     21 C         -10.5890    1.8795   -3.1423 C.ar    1  UNL1       -0.0594
     22 C         -10.3704    1.9890   -4.5027 C.ar    1  UNL1       -0.0500
     23 C         -10.4650    0.8707   -5.3102 C.ar    1  UNL1        0.0567
     24 C         -10.2271    0.9901   -6.7935 C.3     1  UNL1        0.4175
     25 F          -9.9289    2.3192   -7.1125 F       1  UNL1       -0.1659
     26 F          -9.1546    0.1705   -7.1612 F       1  UNL1       -0.1659
     27 F         -11.3767    0.5915   -7.4838 F       1  UNL1       -0.1659
     28 C         -10.7745   -0.3573   -4.7566 C.ar    1  UNL1       -0.0237
     29 C          -9.2558   -3.6158   -3.2169 C.3     1  UNL1        0.0212
     30 C          -7.8132   -3.1163   -3.3448 C.3     1  UNL1       -0.0274
     31 C          -3.5450   -0.4809   -1.1273 C.3     1  UNL1        0.0061
     32 C          -2.0858   -0.0226   -1.1753 C.3     1  UNL1       -0.0300
     33 H           1.0039    1.9031    0.0027 H       1  UNL1        0.0284
     34 H          -0.5459    1.8868   -0.8726 H       1  UNL1        0.0284
     35 H          -0.5289    1.8773    0.9072 H       1  UNL1        0.0284
     36 H           0.5123   -0.3556   -0.8948 H       1  UNL1        0.0846
     37 H           0.2319   -0.1594    2.1383 H       1  UNL1        0.0284
     38 H           0.7568   -1.6008    1.2356 H       1  UNL1        0.0284
     39 H           1.7647   -0.1336    1.2338 H       1  UNL1        0.0284
     40 H          -0.8940   -2.3336   -0.9146 H       1  UNL1        0.0815
     41 H          -0.7776   -2.3373    0.8610 H       1  UNL1        0.0815
     42 H          -2.7672   -3.6052    0.0953 H       1  UNL1        0.0335
     43 H          -3.2467   -2.1627    1.0229 H       1  UNL1        0.0335
     44 H          -3.1613   -2.4069   -2.0199 H       1  UNL1        0.0502
     45 H          -5.3525   -2.6560   -0.1041 H       1  UNL1        0.1490
     46 H          -7.2012   -4.0376   -1.4959 H       1  UNL1        0.0395
     47 H          -7.4847   -1.9968   -0.1003 H       1  UNL1        0.0285
     48 H          -7.9492   -1.0786   -1.5534 H       1  UNL1        0.0285
     49 H          -9.4090   -3.4892   -0.3773 H       1  UNL1        0.0444
     50 H          -9.9804   -1.8009   -0.3918 H       1  UNL1        0.0444
     51 H         -11.0737    0.5664   -1.5262 H       1  UNL1        0.0637
     52 H         -10.5151    2.7530   -2.5115 H       1  UNL1        0.0618
     53 H         -10.1259    2.9480   -4.9349 H       1  UNL1        0.0623
     54 H         -10.8484   -1.2308   -5.3873 H       1  UNL1        0.0642
     55 H          -9.2558   -4.6429   -2.8519 H       1  UNL1        0.0444
     56 H          -9.7454   -3.5714   -4.1897 H       1  UNL1        0.0444
     57 H          -7.8105   -2.1234   -3.7945 H       1  UNL1        0.0285
     58 H          -7.2451   -3.8024   -3.9730 H       1  UNL1        0.0285
     59 H          -4.0702   -0.1166   -2.0103 H       1  UNL1        0.0335
     60 H          -4.0223   -0.0861   -0.2304 H       1  UNL1        0.0335
     61 H          -2.0480    1.0665   -1.1952 H       1  UNL1        0.0815
     62 H          -1.6105   -0.4182   -2.0730 H       1  UNL1        0.0815
@<TRIPOS>UNITY_ATOM_ATTR
4 1
charge 1
@<TRIPOS>BOND
     1     1     2    1
     2     1    33    1
     3     1    34    1
     4     1    35    1
     5     2     3    1
     6     2     4    1
     7     2    36    1
     8     3    37    1
     9     3    38    1
    10     3    39    1
    11     4     5    1
    12     4    32    1
    13     4     6    1
    14     6     7    1
    15     6    40    1
    16     6    41    1
    17     7     8    1
    18     7    42    1
    19     7    43    1
    20     8     9    1
    21     8    31    1
    22     8    44    1
    23     9    10   am
    24     9    45    1
    25    10    11    2
    26    10    12    1
    27    12    30    1
    28    12    13    1
    29    12    46    1
    30    13    14    1
    31    13    47    1
    32    13    48    1
    33    14    15    1
    34    14    49    1
    35    14    50    1
    36    16    15    1
    37    15    29    1
    38    16    17    2
    39    16    18    2
    40    16    19    1
    41    19    28   ar
    42    19    20   ar
    43    20    21   ar
    44    20    51    1
    45    21    22   ar
    46    21    52    1
    47    22    23   ar
    48    22    53    1
    49    23    24    1
    50    23    28   ar
    51    24    25    1
    52    24    26    1
    53    24    27    1
    54    28    54    1
    55    29    30    1
    56    29    55    1
    57    29    56    1
    58    30    57    1
    59    30    58    1
    60    31    32    1
    61    31    59    1
    62    31    60    1
    63    32    61    1
    64    32    62    1
