@<TRIPOS>MOLECULE
ZINC000000842957
 54 56 0 0 0
SMALL
GASTEIGER

@<TRIPOS>ATOM
      1 C           1.0224   -5.9028  -10.0326 C.3     1  UNL1        0.0788
      2 O           1.5278   -4.5714   -9.9145 O.3     1  UNL1       -0.4951
      3 C           1.7761   -4.1148   -8.6588 C.ar    1  UNL1        0.1202
      4 C           1.5436   -4.9335   -7.5632 C.ar    1  UNL1       -0.0181
      5 C           1.7972   -4.4673   -6.2878 C.ar    1  UNL1       -0.0319
      6 C           2.2819   -3.1857   -6.1026 C.ar    1  UNL1        0.1057
      7 S           2.6039   -2.5938   -4.4745 S.O2    1  UNL1        0.0616
      8 O           2.5210   -1.1767   -4.5391 O.2     1  UNL1       -0.1528
      9 O           1.8088   -3.3797   -3.5973 O.2     1  UNL1       -0.1528
     10 N           4.1819   -2.9545   -4.1249 N.3     1  UNL1       -0.1635
     11 C           4.5348   -4.2833   -3.6191 C.3     1  UNL1        0.0971
     12 C           4.9650   -5.1598   -4.7671 C.2     1  UNL1        0.2290
     13 O           4.9756   -4.7180   -5.8965 O.2     1  UNL1       -0.2743
     14 N           5.3378   -6.4347   -4.5386 N.am    1  UNL1       -0.3114
     15 C           5.7559   -7.2867   -5.6546 C.3     1  UNL1        0.0232
     16 C           7.2681   -7.1194   -5.9095 C.3     1  UNL1       -0.0345
     17 C           7.9168   -8.2885   -5.1277 C.3     1  UNL1       -0.0513
     18 C           6.9145   -9.4478   -5.3525 C.3     1  UNL1       -0.0513
     19 C           5.5311   -8.7672   -5.3004 C.3     1  UNL1       -0.0345
     20 C           5.2249   -1.9447   -4.3215 C.3     1  UNL1        0.0460
     21 C           5.4908   -1.2368   -3.0179 C.ar    1  UNL1       -0.0317
     22 C           4.8526   -0.0433   -2.7368 C.ar    1  UNL1       -0.0573
     23 C           5.0964    0.6060   -1.5410 C.ar    1  UNL1       -0.0615
     24 C           5.9782    0.0616   -0.6262 C.ar    1  UNL1       -0.0617
     25 C           6.6158   -1.1324   -0.9069 C.ar    1  UNL1       -0.0615
     26 C           6.3686   -1.7839   -2.1008 C.ar    1  UNL1       -0.0573
     27 C           2.5149   -2.3679   -7.1929 C.ar    1  UNL1       -0.0319
     28 C           2.2679   -2.8313   -8.4707 C.ar    1  UNL1       -0.0181
     29 H           1.7388   -6.6028   -9.6028 H       1  UNL1        0.0660
     30 H           0.0744   -5.9802   -9.5001 H       1  UNL1        0.0660
     31 H           0.8683   -6.1409  -11.0851 H       1  UNL1        0.0660
     32 H           1.1643   -5.9344   -7.7072 H       1  UNL1        0.0655
     33 H           1.6164   -5.1043   -5.4345 H       1  UNL1        0.0638
     34 H           5.3524   -4.1944   -2.9037 H       1  UNL1        0.0539
     35 H           3.6688   -4.7269   -3.1279 H       1  UNL1        0.0539
     36 H           5.3292   -6.7880   -3.6353 H       1  UNL1        0.1490
     37 H           5.1943   -7.0281   -6.5523 H       1  UNL1        0.0498
     38 H           7.4872   -7.2042   -6.9739 H       1  UNL1        0.0283
     39 H           7.6165   -6.1618   -5.5224 H       1  UNL1        0.0283
     40 H           8.8935   -8.5363   -5.5433 H       1  UNL1        0.0266
     41 H           7.9968   -8.0471   -4.0678 H       1  UNL1        0.0266
     42 H           7.0765   -9.9086   -6.3269 H       1  UNL1        0.0266
     43 H           7.0048  -10.1895   -4.5589 H       1  UNL1        0.0266
     44 H           5.1108   -8.8517   -4.2982 H       1  UNL1        0.0283
     45 H           4.8610   -9.2273   -6.0267 H       1  UNL1        0.0283
     46 H           6.1391   -2.4287   -4.6651 H       1  UNL1        0.0493
     47 H           4.8945   -1.2213   -5.0669 H       1  UNL1        0.0493
     48 H           4.1636    0.3821   -3.4515 H       1  UNL1        0.0621
     49 H           4.5983    1.5389   -1.3217 H       1  UNL1        0.0618
     50 H           6.1693    0.5692    0.3077 H       1  UNL1        0.0618
     51 H           7.3050   -1.5576   -0.1923 H       1  UNL1        0.0618
     52 H           6.8667   -2.7167   -2.3202 H       1  UNL1        0.0621
     53 H           2.8939   -1.3674   -7.0457 H       1  UNL1        0.0638
     54 H           2.4500   -2.1922   -9.3220 H       1  UNL1        0.0655
@<TRIPOS>BOND
     1     1     2    1
     2     1    29    1
     3     1    30    1
     4     1    31    1
     5     2     3    1
     6     3    28   ar
     7     3     4   ar
     8     4     5   ar
     9     4    32    1
    10     5     6   ar
    11     5    33    1
    12     6     7    1
    13     6    27   ar
    14     7     8    2
    15     7     9    2
    16     7    10    1
    17    10    11    1
    18    10    20    1
    19    11    12    1
    20    11    34    1
    21    11    35    1
    22    12    13    2
    23    12    14   am
    24    14    15    1
    25    14    36    1
    26    15    19    1
    27    15    16    1
    28    15    37    1
    29    16    17    1
    30    16    38    1
    31    16    39    1
    32    17    18    1
    33    17    40    1
    34    17    41    1
    35    18    19    1
    36    18    42    1
    37    18    43    1
    38    19    44    1
    39    19    45    1
    40    20    21    1
    41    20    46    1
    42    20    47    1
    43    21    26   ar
    44    21    22   ar
    45    22    23   ar
    46    22    48    1
    47    23    24   ar
    48    23    49    1
    49    24    25   ar
    50    24    50    1
    51    25    26   ar
    52    25    51    1
    53    26    52    1
    54    27    28   ar
    55    27    53    1
    56    28    54    1
