@<TRIPOS>MOLECULE
ZINC000065364965
 33 33 0 0 0
SMALL
GASTEIGER

@<TRIPOS>ATOM
      1 C           0.4506    0.9937    0.6913 C.3     1  UNL1       -0.0362
      2 C           0.1314   -0.3950    0.1341 C.3     1  UNL1        0.1186
      3 H          -0.9441   -0.5664    0.1798 H       1  UNL1        0.0611
      4 C           0.8420   -1.4408    0.9541 C.2     1  UNL1        0.2325
      5 N           0.5857   -1.5523    2.2726 N.am    1  UNL1       -0.3278
      6 O           1.6445   -2.1822    0.4275 O.2     1  UNL1       -0.2739
      7 N           0.5804   -0.4777   -1.2579 N.pl3   1  UNL1       -0.1960
      8 C           1.9069   -0.1846   -1.5824 C.ar    1  UNL1        0.0522
      9 C           2.7530   -1.1914   -2.0292 C.ar    1  UNL1       -0.0390
     10 C           4.0641   -0.8980   -2.3497 C.ar    1  UNL1       -0.0594
     11 C           4.5346    0.3963   -2.2262 C.ar    1  UNL1       -0.0500
     12 C           3.6949    1.4012   -1.7812 C.ar    1  UNL1        0.0566
     13 C           4.2121    2.8104   -1.6482 C.3     1  UNL1        0.4175
     14 F           5.5575    2.8513   -2.0298 F       1  UNL1       -0.1659
     15 F           3.4674    3.6603   -2.4730 F       1  UNL1       -0.1659
     16 F           4.0917    3.2277   -0.3183 F       1  UNL1       -0.1659
     17 C           2.3815    1.1159   -1.4645 C.ar    1  UNL1       -0.0274
     18 S          -0.4848   -0.9186   -2.4467 S.O2    1  UNL1        0.0432
     19 C          -1.2874    0.6335   -2.9339 C.3     1  UNL1        0.0738
     20 O           0.3420   -1.4032   -3.4960 O.2     1  UNL1       -0.1552
     21 O          -1.4100   -1.7733   -1.7889 O.2     1  UNL1       -0.1552
     22 H           1.5314    1.1210    0.7526 H       1  UNL1        0.0253
     23 H           0.0318    1.7545    0.0327 H       1  UNL1        0.0253
     24 H           0.0159    1.0949    1.6858 H       1  UNL1        0.0253
     25 H          -0.0561   -0.9593    2.6937 H       1  UNL1        0.1450
     26 H           1.0431   -2.2254    2.8004 H       1  UNL1        0.1450
     27 H           2.3862   -2.2026   -2.1255 H       1  UNL1        0.0636
     28 H           4.7226   -1.6805   -2.6968 H       1  UNL1        0.0618
     29 H           5.5602    0.6230   -2.4775 H       1  UNL1        0.0623
     30 H           1.7263    1.9010   -1.1171 H       1  UNL1        0.0642
     31 H          -0.5265    1.3810   -3.1585 H       1  UNL1        0.0482
     32 H          -1.9016    0.4631   -3.8181 H       1  UNL1        0.0482
     33 H          -1.9163    0.9891   -2.1177 H       1  UNL1        0.0482
@<TRIPOS>BOND
     1     1     2    1
     2     1    22    1
     3     1    23    1
     4     1    24    1
     5     2     3    1
     6     2     4    1
     7     2     7    1
     8     4     5   am
     9     4     6    2
    10     5    25    1
    11     5    26    1
    12     7     8    1
    13    18     7    1
    14     8    17   ar
    15     8     9   ar
    16     9    10   ar
    17     9    27    1
    18    10    11   ar
    19    10    28    1
    20    11    12   ar
    21    11    29    1
    22    12    13    1
    23    12    17   ar
    24    13    14    1
    25    13    15    1
    26    13    16    1
    27    17    30    1
    28    18    19    1
    29    18    20    2
    30    18    21    2
    31    19    31    1
    32    19    32    1
    33    19    33    1
