@<TRIPOS>MOLECULE
ZINC000222662148
 51 52 0 0 0
SMALL
GASTEIGER

@<TRIPOS>ATOM
      1 C          -0.0173    1.4248    0.0099 C.3     1  UNL1        0.0788
      2 O           0.0021   -0.0041    0.0020 O.3     1  UNL1       -0.4948
      3 C          -1.2003   -0.6375    0.0101 C.ar    1  UNL1        0.1234
      4 C          -2.3744    0.1010    0.0195 C.ar    1  UNL1       -0.0178
      5 C          -3.5956   -0.5454    0.0272 C.ar    1  UNL1       -0.0319
      6 C          -3.6478   -1.9268    0.0260 C.ar    1  UNL1        0.1059
      7 S          -5.2067   -2.7480    0.0365 S.O2    1  UNL1        0.0604
      8 O          -4.9753   -4.0413    0.5778 O.2     1  UNL1       -0.1529
      9 O          -6.1402   -1.8299    0.5888 O.2     1  UNL1       -0.1529
     10 N          -5.6519   -2.9747   -1.5424 N.3     1  UNL1       -0.1827
     11 C          -5.2576   -4.1975   -2.2463 C.3     1  UNL1        0.0086
     12 C          -6.4401   -1.9525   -2.2352 C.3     1  UNL1        0.0086
     13 C          -2.4787   -2.6653    0.0162 C.ar    1  UNL1       -0.0287
     14 C          -1.2554   -2.0239    0.0032 C.ar    1  UNL1       -0.0034
     15 C           0.0183   -2.8292   -0.0080 C.3     1  UNL1       -0.0159
     16 C           0.5306   -2.9932    1.4243 C.3     1  UNL1        0.0280
     17 C           1.8043   -3.7985    1.4131 C.2     1  UNL1        0.2134
     18 O           2.2577   -4.2017    0.3630 O.2     1  UNL1       -0.2758
     19 N           2.4396   -4.0708    2.5701 N.am    1  UNL1       -0.3128
     20 C           3.6779   -4.8537    2.5593 C.3     1  UNL1        0.0379
     21 C           4.1902   -5.0176    3.9916 C.3     1  UNL1        0.0742
     22 H           3.4432   -5.5221    4.6045 H       1  UNL1        0.0611
     23 C           5.5193   -5.8139    3.9995 C.3     1  UNL1       -0.0231
     24 C           6.1528   -5.3170    5.3275 C.3     1  UNL1       -0.0271
     25 C           5.6743   -3.8505    5.3902 C.3     1  UNL1        0.0482
     26 O           4.5147   -3.7366    4.5547 O.3     1  UNL1       -0.3750
     27 H           1.0053    1.8021    0.0021 H       1  UNL1        0.0660
     28 H          -0.5445    1.7859   -0.8732 H       1  UNL1        0.0660
     29 H          -0.5275    1.7763    0.9067 H       1  UNL1        0.0660
     30 H          -2.3342    1.1802    0.0211 H       1  UNL1        0.0655
     31 H          -4.5101    0.0291    0.0345 H       1  UNL1        0.0638
     32 H          -6.0260   -4.9586   -2.1109 H       1  UNL1        0.0408
     33 H          -5.1412   -3.9837   -3.3087 H       1  UNL1        0.0408
     34 H          -4.3120   -4.5600   -1.8430 H       1  UNL1        0.0408
     35 H          -5.7694   -1.2411   -2.7170 H       1  UNL1        0.0408
     36 H          -7.0686   -2.4271   -2.9888 H       1  UNL1        0.0408
     37 H          -7.0689   -1.4287   -1.5152 H       1  UNL1        0.0408
     38 H          -2.5221   -3.7444    0.0150 H       1  UNL1        0.0641
     39 H          -0.1766   -3.8113   -0.4388 H       1  UNL1        0.0319
     40 H           0.7694   -2.3129   -0.6057 H       1  UNL1        0.0319
     41 H           0.7255   -2.0111    1.8551 H       1  UNL1        0.0361
     42 H          -0.2205   -3.5096    2.0220 H       1  UNL1        0.0361
     43 H           2.0771   -3.7483    3.4101 H       1  UNL1        0.1488
     44 H           3.4830   -5.8358    2.1285 H       1  UNL1        0.0487
     45 H           4.4290   -4.3373    1.9616 H       1  UNL1        0.0487
     46 H           5.3338   -6.8876    4.0304 H       1  UNL1        0.0291
     47 H           6.1411   -5.5490    3.1443 H       1  UNL1        0.0291
     48 H           5.7721   -5.8859    6.1757 H       1  UNL1        0.0288
     49 H           7.2407   -5.3684    5.2815 H       1  UNL1        0.0288
     50 H           5.4160   -3.5894    6.4165 H       1  UNL1        0.0560
     51 H           6.4603   -3.1892    5.0258 H       1  UNL1        0.0560
@<TRIPOS>BOND
     1     1     2    1
     2     1    27    1
     3     1    28    1
     4     1    29    1
     5     2     3    1
     6     3    14   ar
     7     3     4   ar
     8     4     5   ar
     9     4    30    1
    10     5     6   ar
    11     5    31    1
    12     6     7    1
    13     6    13   ar
    14     7     8    2
    15     7     9    2
    16     7    10    1
    17    10    11    1
    18    10    12    1
    19    11    32    1
    20    11    33    1
    21    11    34    1
    22    12    35    1
    23    12    36    1
    24    12    37    1
    25    13    14   ar
    26    13    38    1
    27    14    15    1
    28    15    16    1
    29    15    39    1
    30    15    40    1
    31    16    17    1
    32    16    41    1
    33    16    42    1
    34    17    18    2
    35    17    19   am
    36    19    20    1
    37    19    43    1
    38    20    21    1
    39    20    44    1
    40    20    45    1
    41    21    22    1
    42    21    26    1
    43    21    23    1
    44    23    24    1
    45    23    46    1
    46    23    47    1
    47    24    25    1
    48    24    48    1
    49    24    49    1
    50    25    26    1
    51    25    50    1
    52    25    51    1
