@<TRIPOS>MOLECULE
ZINC000015386090
 47 49 0 0 0
SMALL
GASTEIGER

@<TRIPOS>ATOM
      1 C          -0.0187    1.5258    0.0104 C.3     1  UNL1       -0.0617
      2 C           0.0021   -0.0041    0.0020 C.3     1  UNL1       -0.0321
      3 H          -0.8825   -0.4839   -0.4168 H       1  UNL1        0.0306
      4 C           1.3509   -0.6911   -0.2209 C.3     1  UNL1       -0.0384
      5 C           0.7031   -0.7075    1.1659 C.3     1  UNL1        0.0386
      6 H           0.2800   -1.6503    1.5126 H       1  UNL1        0.0397
      7 C           1.3211    0.1590    2.2328 C.2     1  UNL1        0.2190
      8 O           1.2516    1.3669    2.1486 O.2     1  UNL1       -0.2753
      9 N           1.9511   -0.4083    3.2806 N.am    1  UNL1       -0.2987
     10 C           2.0483   -1.8704    3.3925 C.3     1  UNL1        0.0291
     11 C           3.5266   -2.2538    3.5342 C.3     1  UNL1        0.0363
     12 N           4.1289   -1.4214    4.5850 N.3     1  UNL1       -0.1736
     13 S           4.9039   -2.1185    5.8718 S.O2    1  UNL1        0.0610
     14 O           4.8723   -1.1642    6.9242 O.2     1  UNL1       -0.1528
     15 O           4.3737   -3.4309    5.9965 O.2     1  UNL1       -0.1528
     16 C           6.5970   -2.3065    5.4215 C.ar    1  UNL1        0.1065
     17 C           7.0212   -3.4637    4.7954 C.ar    1  UNL1       -0.0237
     18 C           8.3495   -3.6113    4.4421 C.ar    1  UNL1        0.0572
     19 C           8.8121   -4.8729    3.7601 C.3     1  UNL1        0.4175
     20 F           8.7029   -4.7205    2.3737 F       1  UNL1       -0.1659
     21 F          10.1463   -5.1235    4.0980 F       1  UNL1       -0.1659
     22 F           8.0164   -5.9461    4.1753 F       1  UNL1       -0.1659
     23 C           9.2533   -2.6013    4.7140 C.ar    1  UNL1       -0.0384
     24 C           8.8290   -1.4440    5.3397 C.ar    1  UNL1        0.0572
     25 C           9.8145   -0.3432    5.6366 C.3     1  UNL1        0.4175
     26 F          11.0849   -0.7214    5.1891 F       1  UNL1       -0.1659
     27 F           9.4181    0.8270    4.9802 F       1  UNL1       -0.1659
     28 F           9.8552   -0.1132    7.0159 F       1  UNL1       -0.1659
     29 C           7.4999   -1.2946    5.6891 C.ar    1  UNL1       -0.0237
     30 C           4.0317    0.0408    4.4730 C.3     1  UNL1        0.0363
     31 C           2.5583    0.4242    4.3284 C.3     1  UNL1        0.0291
     32 H           1.0039    1.9031    0.0027 H       1  UNL1        0.0233
     33 H          -0.5459    1.8868   -0.8726 H       1  UNL1        0.0233
     34 H          -0.5289    1.8773    0.9072 H       1  UNL1        0.0233
     35 H           1.3536   -1.6231   -0.7861 H       1  UNL1        0.0275
     36 H           2.2234   -0.0532   -0.3616 H       1  UNL1        0.0275
     37 H           1.4972   -2.2076    4.2704 H       1  UNL1        0.0478
     38 H           1.6343   -2.3342    2.4972 H       1  UNL1        0.0478
     39 H           3.6070   -3.3054    3.8096 H       1  UNL1        0.0459
     40 H           4.0418   -2.0800    2.5895 H       1  UNL1        0.0459
     41 H           6.3150   -4.2526    4.5826 H       1  UNL1        0.0642
     42 H          10.2911   -2.7166    4.4380 H       1  UNL1        0.0629
     43 H           7.1684   -0.3904    6.1779 H       1  UNL1        0.0642
     44 H           4.4457    0.5045    5.3684 H       1  UNL1        0.0459
     45 H           4.5828    0.3779    3.5952 H       1  UNL1        0.0459
     46 H           2.4794    1.4759    4.0531 H       1  UNL1        0.0478
     47 H           2.0408    0.2507    5.2719 H       1  UNL1        0.0478
@<TRIPOS>BOND
     1     1     2    1
     2     1    32    1
     3     1    33    1
     4     1    34    1
     5     2     3    1
     6     2     5    1
     7     2     4    1
     8     4     5    1
     9     4    35    1
    10     4    36    1
    11     5     6    1
    12     5     7    1
    13     7     8    2
    14     7     9   am
    15     9    31    1
    16     9    10    1
    17    10    11    1
    18    10    37    1
    19    10    38    1
    20    11    12    1
    21    11    39    1
    22    11    40    1
    23    13    12    1
    24    12    30    1
    25    13    14    2
    26    13    15    2
    27    13    16    1
    28    16    29   ar
    29    16    17   ar
    30    17    18   ar
    31    17    41    1
    32    18    19    1
    33    18    23   ar
    34    19    20    1
    35    19    21    1
    36    19    22    1
    37    23    24   ar
    38    23    42    1
    39    24    25    1
    40    24    29   ar
    41    25    26    1
    42    25    27    1
    43    25    28    1
    44    29    43    1
    45    30    31    1
    46    30    44    1
    47    30    45    1
    48    31    46    1
    49    31    47    1
