@<TRIPOS>MOLECULE
ZINC000022874474
 43 44 0 0 0
SMALL
GASTEIGER

@<TRIPOS>ATOM
      1 C          -0.0187    1.5258    0.0104 C.3     1  UNL1       -0.0392
      2 C           0.0021   -0.0041    0.0020 C.3     1  UNL1        0.0727
      3 O           0.6709   -0.4649   -1.1737 O.3     1  UNL1       -0.2578
      4 N           0.7451   -1.8751   -1.2788 N.am    1  UNL1       -0.0626
      5 C           1.3511   -2.4407   -2.3414 C.2     1  UNL1        0.2741
      6 O           1.8331   -1.7419   -3.2076 O.2     1  UNL1       -0.2703
      7 C           1.4300   -3.9414   -2.4533 C.3     1  UNL1        0.1010
      8 N           2.1311   -4.3029   -3.6878 N.3     1  UNL1       -0.1634
      9 C           3.5946   -4.3650   -3.7078 C.3     1  UNL1        0.0461
     10 C           4.0466   -5.7193   -3.2254 C.ar    1  UNL1       -0.0317
     11 C           4.2812   -5.9307   -1.8796 C.ar    1  UNL1       -0.0573
     12 C           4.6958   -7.1730   -1.4371 C.ar    1  UNL1       -0.0615
     13 C           4.8753   -8.2039   -2.3403 C.ar    1  UNL1       -0.0617
     14 C           4.6398   -7.9928   -3.6860 C.ar    1  UNL1       -0.0615
     15 C           4.2211   -6.7517   -4.1280 C.ar    1  UNL1       -0.0573
     16 S           1.2692   -4.6414   -5.0608 S.O2    1  UNL1        0.0616
     17 O           2.1061   -5.4571   -5.8691 O.2     1  UNL1       -0.1528
     18 O          -0.0261   -5.0399   -4.6334 O.2     1  UNL1       -0.1528
     19 C           1.0606   -3.1246   -5.9328 C.ar    1  UNL1        0.1056
     20 C          -0.0397   -2.3272   -5.6787 C.ar    1  UNL1       -0.0340
     21 C          -0.2039   -1.1373   -6.3625 C.ar    1  UNL1       -0.0415
     22 C           0.7332   -0.7443   -7.3013 C.ar    1  UNL1        0.0411
     23 CL          0.5280    0.7504   -8.1601 Cl      1  UNL1       -0.0835
     24 C           1.8342   -1.5427   -7.5552 C.ar    1  UNL1       -0.0415
     25 C           2.0002   -2.7297   -6.8668 C.ar    1  UNL1       -0.0340
     26 H           1.0039    1.9031    0.0027 H       1  UNL1        0.0252
     27 H          -0.5459    1.8868   -0.8726 H       1  UNL1        0.0252
     28 H          -0.5289    1.8773    0.9072 H       1  UNL1        0.0252
     29 H           0.5293   -0.3651    0.8851 H       1  UNL1        0.0581
     30 H          -1.0205   -0.3814    0.0098 H       1  UNL1        0.0581
     31 H           1.9726   -4.3416   -1.5968 H       1  UNL1        0.0541
     32 H           0.4229   -4.3578   -2.4722 H       1  UNL1        0.0541
     33 H           3.9513   -4.2041   -4.7252 H       1  UNL1        0.0493
     34 H           4.0000   -3.5926   -3.0542 H       1  UNL1        0.0493
     35 H           4.1410   -5.1253   -1.1739 H       1  UNL1        0.0621
     36 H           4.8798   -7.3380   -0.3857 H       1  UNL1        0.0618
     37 H           5.1999   -9.1743   -1.9947 H       1  UNL1        0.0618
     38 H           4.7804   -8.7981   -4.3917 H       1  UNL1        0.0618
     39 H           4.0371   -6.5867   -5.1793 H       1  UNL1        0.0621
     40 H          -0.7714   -2.6343   -4.9461 H       1  UNL1        0.0637
     41 H          -1.0637   -0.5146   -6.1641 H       1  UNL1        0.0633
     42 H           2.5659   -1.2366   -8.2882 H       1  UNL1        0.0633
     43 H           2.8598   -3.3529   -7.0646 H       1  UNL1        0.0637
@<TRIPOS>BOND
     1     1     2    1
     2     1    26    1
     3     1    27    1
     4     1    28    1
     5     2     3    1
     6     2    29    1
     7     2    30    1
     8     3     4    1
     9     4     5   am
    10     5     6    2
    11     5     7    1
    12     7     8    1
    13     7    31    1
    14     7    32    1
    15     8     9    1
    16    16     8    1
    17     9    10    1
    18     9    33    1
    19     9    34    1
    20    10    15   ar
    21    10    11   ar
    22    11    12   ar
    23    11    35    1
    24    12    13   ar
    25    12    36    1
    26    13    14   ar
    27    13    37    1
    28    14    15   ar
    29    14    38    1
    30    15    39    1
    31    16    17    2
    32    16    18    2
    33    16    19    1
    34    19    25   ar
    35    19    20   ar
    36    20    21   ar
    37    20    40    1
    38    21    22   ar
    39    21    41    1
    40    22    23    1
    41    22    24   ar
    42    24    25   ar
    43    24    42    1
    44    25    43    1
