@<TRIPOS>MOLECULE
ZINC000069453767
 34 35 0 0 0
SMALL
GASTEIGER

@<TRIPOS>ATOM
      1 N          -0.0162    1.3436    0.0094 N.am    1  UNL1       -0.3291
      2 C           0.0021   -0.0041    0.0020 C.2     1  UNL1        0.2149
      3 O           1.0605   -0.5961   -0.0113 O.2     1  UNL1       -0.2757
      4 C          -1.2926   -0.7753    0.0102 C.3     1  UNL1        0.0509
      5 H          -1.8976   -0.5198   -0.8597 H       1  UNL1        0.0408
      6 C          -2.0792   -0.5135    1.3218 C.3     1  UNL1       -0.0262
      7 C          -1.4018   -1.5106    2.2949 C.3     1  UNL1        0.0213
      8 N          -1.1152   -2.7021    1.4753 N.3     1  UNL1       -0.1758
      9 S          -0.9288   -4.2449    2.0473 S.O2    1  UNL1        0.0636
     10 O          -0.1519   -4.9398    1.0814 O.2     1  UNL1       -0.1528
     11 O          -0.5470   -4.1240    3.4107 O.2     1  UNL1       -0.1528
     12 C          -2.5211   -4.9993    2.0414 C.ar    1  UNL1        0.1410
     13 C          -2.7713   -6.0789    1.2161 C.ar    1  UNL1       -0.0209
     14 C          -4.0207   -6.6711    1.2113 C.ar    1  UNL1        0.0568
     15 C          -4.2924   -7.8484    0.3106 C.3     1  UNL1        0.4175
     16 F          -3.9909   -9.0340    0.9893 F       1  UNL1       -0.1659
     17 F          -5.6421   -7.8522   -0.0576 F       1  UNL1       -0.1659
     18 F          -3.4965   -7.7520   -0.8358 F       1  UNL1       -0.1659
     19 C          -5.0206   -6.1843    2.0321 C.ar    1  UNL1       -0.0473
     20 C          -4.7728   -5.1043    2.8583 C.ar    1  UNL1       -0.0240
     21 C          -3.5205   -4.5141    2.8681 C.ar    1  UNL1        0.1496
     22 F          -3.2770   -3.4584    3.6752 F       1  UNL1       -0.2034
     23 C          -1.0232   -2.2939    0.0610 C.3     1  UNL1        0.0316
     24 H           0.8172    1.8399    0.0041 H       1  UNL1        0.1449
     25 H          -0.8627    1.8171    0.0160 H       1  UNL1        0.1449
     26 H          -1.9449    0.5141    1.6594 H       1  UNL1        0.0286
     27 H          -3.1365   -0.7470    1.1965 H       1  UNL1        0.0286
     28 H          -0.4766   -1.0886    2.6872 H       1  UNL1        0.0444
     29 H          -2.0794   -1.7649    3.1099 H       1  UNL1        0.0444
     30 H          -1.9908   -6.4600    0.5743 H       1  UNL1        0.0643
     31 H          -5.9961   -6.6479    2.0278 H       1  UNL1        0.0624
     32 H          -5.5544   -4.7237    3.4991 H       1  UNL1        0.0647
     33 H          -1.7709   -2.8255   -0.5276 H       1  UNL1        0.0451
     34 H          -0.0257   -2.5081   -0.3225 H       1  UNL1        0.0451
@<TRIPOS>BOND
     1     1     2   am
     2     1    24    1
     3     1    25    1
     4     2     3    2
     5     2     4    1
     6     4     5    1
     7     4    23    1
     8     4     6    1
     9     6     7    1
    10     6    26    1
    11     6    27    1
    12     7     8    1
    13     7    28    1
    14     7    29    1
    15     9     8    1
    16     8    23    1
    17     9    10    2
    18     9    11    2
    19     9    12    1
    20    12    21   ar
    21    12    13   ar
    22    13    14   ar
    23    13    30    1
    24    14    15    1
    25    14    19   ar
    26    15    16    1
    27    15    17    1
    28    15    18    1
    29    19    20   ar
    30    19    31    1
    31    20    21   ar
    32    20    32    1
    33    21    22    1
    34    23    33    1
    35    23    34    1
