@<TRIPOS>MOLECULE
ZINC000032550567
 52 54 0 0 0
SMALL
GASTEIGER

@<TRIPOS>ATOM
      1 C           0.0014    1.4875   -0.0142 C.3     1  UNL1       -0.0613
      2 C           0.0268   -0.0423   -0.0147 C.3     1  UNL1       -0.0305
      3 C           0.7515   -0.5330    1.2121 C.ar    1  UNL1       -0.0475
      4 C           2.1184   -0.7353    1.1728 C.ar    1  UNL1       -0.0567
      5 C           2.7831   -1.1855    2.2981 C.ar    1  UNL1       -0.0351
      6 C           2.0810   -1.4329    3.4629 C.ar    1  UNL1        0.1055
      7 S           2.9283   -2.0072    4.8971 S.O2    1  UNL1        0.0613
      8 O           1.9603   -2.6756    5.6942 O.2     1  UNL1       -0.1528
      9 O           4.1200   -2.6295    4.4369 O.2     1  UNL1       -0.1528
     10 N           3.3996   -0.6718    5.7557 N.3     1  UNL1       -0.1680
     11 C           2.5118   -0.1046    6.7737 C.3     1  UNL1        0.0182
     12 C           2.8847   -0.6676    8.1466 C.3     1  UNL1       -0.0507
     13 C           4.7043   -0.0578    5.4972 C.3     1  UNL1        0.0971
     14 C           4.5410    1.0748    4.5166 C.2     1  UNL1        0.2330
     15 O           3.4428    1.3427    4.0768 O.2     1  UNL1       -0.2740
     16 N           5.6153    1.7901    4.1282 N.am    1  UNL1       -0.2843
     17 C           5.4803    2.7787    3.1448 C.ar    1  UNL1        0.0371
     18 C           6.5059    2.9983    2.2356 C.ar    1  UNL1       -0.0368
     19 C           6.3741    3.9747    1.2668 C.ar    1  UNL1       -0.0145
     20 C           5.2182    4.7378    1.1994 C.ar    1  UNL1        0.1622
     21 O           5.1098    5.7015    0.2430 O.3     1  UNL1       -0.4849
     22 C           3.7930    6.1930   -0.0292 C.3     1  UNL1        0.1237
     23 C           3.0990    6.4758    1.3100 C.3     1  UNL1        0.1237
     24 O           3.0437    5.2532    2.0530 O.3     1  UNL1       -0.4849
     25 C           4.1877    4.5176    2.1065 C.ar    1  UNL1        0.1638
     26 C           4.3187    3.5353    3.0755 C.ar    1  UNL1        0.0049
     27 C           0.7143   -1.2292    3.5027 C.ar    1  UNL1       -0.0351
     28 C           0.0502   -0.7754    2.3785 C.ar    1  UNL1       -0.0567
     29 H           1.0228    1.8679   -0.0192 H       1  UNL1        0.0233
     30 H          -0.5228    1.8425   -0.9016 H       1  UNL1        0.0233
     31 H          -0.5141    1.8421    0.8784 H       1  UNL1        0.0233
     32 H          -0.9947   -0.4226   -0.0097 H       1  UNL1        0.0311
     33 H           0.5422   -0.3968   -0.9073 H       1  UNL1        0.0311
     34 H           2.6669   -0.5421    0.2627 H       1  UNL1        0.0621
     35 H           3.8509   -1.3442    2.2672 H       1  UNL1        0.0637
     36 H           2.6180    0.9802    6.7848 H       1  UNL1        0.0441
     37 H           1.4793   -0.3662    6.5419 H       1  UNL1        0.0441
     38 H           2.2241   -0.2456    8.9040 H       1  UNL1        0.0243
     39 H           2.7784   -1.7524    8.1355 H       1  UNL1        0.0243
     40 H           3.9171   -0.4060    8.3783 H       1  UNL1        0.0243
     41 H           5.1164    0.3262    6.4304 H       1  UNL1        0.0539
     42 H           5.3810   -0.8040    5.0810 H       1  UNL1        0.0539
     43 H           6.4819    1.6203    4.5296 H       1  UNL1        0.1548
     44 H           7.4075    2.4059    2.2856 H       1  UNL1        0.0637
     45 H           7.1735    4.1443    0.5607 H       1  UNL1        0.0656
     46 H           3.8569    7.1123   -0.6113 H       1  UNL1        0.0731
     47 H           3.2286    5.4441   -0.5847 H       1  UNL1        0.0731
     48 H           3.6669    7.2199    1.8685 H       1  UNL1        0.0731
     49 H           2.0885    6.8427    1.1302 H       1  UNL1        0.0731
     50 H           3.5183    3.3614    3.7795 H       1  UNL1        0.0674
     51 H           0.1659   -1.4221    4.4128 H       1  UNL1        0.0637
     52 H          -1.0176   -0.6163    2.4095 H       1  UNL1        0.0621
@<TRIPOS>BOND
     1     1     2    1
     2     1    29    1
     3     1    30    1
     4     1    31    1
     5     2     3    1
     6     2    32    1
     7     2    33    1
     8     3    28   ar
     9     3     4   ar
    10     4     5   ar
    11     4    34    1
    12     5     6   ar
    13     5    35    1
    14     6     7    1
    15     6    27   ar
    16     7     8    2
    17     7     9    2
    18     7    10    1
    19    10    11    1
    20    10    13    1
    21    11    12    1
    22    11    36    1
    23    11    37    1
    24    12    38    1
    25    12    39    1
    26    12    40    1
    27    13    14    1
    28    13    41    1
    29    13    42    1
    30    14    15    2
    31    14    16   am
    32    16    17    1
    33    16    43    1
    34    17    26   ar
    35    17    18   ar
    36    18    19   ar
    37    18    44    1
    38    19    20   ar
    39    19    45    1
    40    20    25   ar
    41    20    21    1
    42    21    22    1
    43    22    23    1
    44    22    46    1
    45    22    47    1
    46    23    24    1
    47    23    48    1
    48    23    49    1
    49    24    25    1
    50    25    26   ar
    51    26    50    1
    52    27    28   ar
    53    27    51    1
    54    28    52    1
