@<TRIPOS>MOLECULE
ZINC000096170963
 36 37 0 0 0
SMALL
GASTEIGER

@<TRIPOS>ATOM
      1 C           0.0330    1.5223   -0.0320 C.3     1  UNL1       -0.0478
      2 C           0.0297   -0.0077   -0.0187 C.3     1  UNL1        0.0291
      3 H           0.4702   -0.3821   -0.9427 H       1  UNL1        0.0477
      4 C          -1.4096   -0.5170    0.1072 C.3     1  UNL1       -0.0359
      5 C          -1.3962   -2.0397    0.2599 C.3     1  UNL1       -0.0504
      6 C          -0.6362   -2.4197    1.5328 C.3     1  UNL1       -0.0385
      7 C           0.8118   -1.9319    1.4230 C.3     1  UNL1        0.0208
      8 N           0.8079   -0.4919    1.1296 N.3     1  UNL1       -0.1738
      9 S           1.6590    0.5649    2.0787 S.O2    1  UNL1        0.0611
     10 O           0.9550    1.7985    2.0366 O.2     1  UNL1       -0.1528
     11 O           1.9477   -0.1243    3.2874 O.2     1  UNL1       -0.1528
     12 C           3.2068    0.8479    1.2856 C.ar    1  UNL1        0.1071
     13 C           4.2874    0.0346    1.5693 C.ar    1  UNL1       -0.0213
     14 C           5.5025    0.2566    0.9462 C.ar    1  UNL1        0.0203
     15 BR          6.9814   -0.8564    1.3336 Br      1  UNL1       -0.0502
     16 C           5.6351    1.2925    0.0395 C.ar    1  UNL1       -0.0360
     17 C           4.5536    2.1056   -0.2437 C.ar    1  UNL1        0.0577
     18 C           4.6978    3.2341   -1.2319 C.3     1  UNL1        0.4175
     19 F           6.0068    3.2577   -1.7251 F       1  UNL1       -0.1659
     20 F           3.8038    3.0436   -2.2911 F       1  UNL1       -0.1659
     21 F           4.4167    4.4487   -0.5972 F       1  UNL1       -0.1659
     22 C           3.3384    1.8802    0.3752 C.ar    1  UNL1       -0.0236
     23 H           1.0597    1.8839    0.0248 H       1  UNL1        0.0245
     24 H          -0.4272    1.8786   -0.9536 H       1  UNL1        0.0245
     25 H          -0.5311    1.8943    0.8232 H       1  UNL1        0.0245
     26 H          -1.8793   -0.0677    0.9823 H       1  UNL1        0.0281
     27 H          -1.9710   -0.2460   -0.7870 H       1  UNL1        0.0281
     28 H          -2.4203   -2.4072    0.3250 H       1  UNL1        0.0266
     29 H          -0.9043   -2.4869   -0.6039 H       1  UNL1        0.0266
     30 H          -1.1131   -1.9525    2.3944 H       1  UNL1        0.0278
     31 H          -0.6471   -3.5030    1.6533 H       1  UNL1        0.0278
     32 H           1.3303   -2.1117    2.3648 H       1  UNL1        0.0444
     33 H           1.3170   -2.4654    0.6178 H       1  UNL1        0.0444
     34 H           4.1835   -0.7740    2.2777 H       1  UNL1        0.0648
     35 H           6.5835    1.4665   -0.4469 H       1  UNL1        0.0634
     36 H           2.4936    2.5154    0.1534 H       1  UNL1        0.0642
@<TRIPOS>BOND
     1     1     2    1
     2     1    23    1
     3     1    24    1
     4     1    25    1
     5     2     3    1
     6     2     8    1
     7     2     4    1
     8     4     5    1
     9     4    26    1
    10     4    27    1
    11     5     6    1
    12     5    28    1
    13     5    29    1
    14     6     7    1
    15     6    30    1
    16     6    31    1
    17     7     8    1
    18     7    32    1
    19     7    33    1
    20     9     8    1
    21     9    10    2
    22     9    11    2
    23     9    12    1
    24    12    22   ar
    25    12    13   ar
    26    13    14   ar
    27    13    34    1
    28    14    15    1
    29    14    16   ar
    30    16    17   ar
    31    16    35    1
    32    17    18    1
    33    17    22   ar
    34    18    19    1
    35    18    20    1
    36    18    21    1
    37    22    36    1
