@<TRIPOS>MOLECULE
ZINC000016651369
 48 48 0 0 0
SMALL
GASTEIGER

@<TRIPOS>ATOM
      1 C          -0.0187    1.5258    0.0104 C.3     1  UNL1       -0.0507
      2 C           0.0021   -0.0041    0.0020 C.3     1  UNL1        0.0177
      3 N           0.6878   -0.4765   -1.2033 N.3     1  UNL1       -0.1771
      4 C           2.1478   -0.5966   -1.2159 C.3     1  UNL1        0.0177
      5 C           2.5532   -1.9514   -0.6319 C.3     1  UNL1       -0.0507
      6 S          -0.1875   -0.8749   -2.5515 S.O2    1  UNL1        0.0608
      7 O           0.6166   -1.7761   -3.3001 O.2     1  UNL1       -0.1528
      8 O          -1.4970   -1.1925   -2.1004 O.2     1  UNL1       -0.1528
      9 C          -0.3375    0.5853   -3.5262 C.ar    1  UNL1        0.1055
     10 C          -1.4057    1.4405   -3.3300 C.ar    1  UNL1       -0.0351
     11 C          -1.5234    2.5861   -4.0947 C.ar    1  UNL1       -0.0567
     12 C          -0.5727    2.8767   -5.0552 C.ar    1  UNL1       -0.0468
     13 C          -0.7013    4.1253   -5.8892 C.3     1  UNL1       -0.0194
     14 C           0.0204    5.2805   -5.1924 C.3     1  UNL1        0.0279
     15 C          -0.1082    6.5291   -6.0263 C.2     1  UNL1        0.2135
     16 O          -0.7171    6.4981   -7.0748 O.2     1  UNL1       -0.2758
     17 N           0.4534    7.6803   -5.6071 N.am    1  UNL1       -0.3130
     18 C           0.3284    8.8941   -6.4178 C.3     1  UNL1        0.0175
     19 C           0.4642   10.1244   -5.5184 C.3     1  UNL1       -0.0469
     20 C           1.4302    8.9142   -7.4792 C.3     1  UNL1       -0.0469
     21 C           0.4962    2.0221   -5.2504 C.ar    1  UNL1       -0.0567
     22 C           0.6160    0.8786   -4.4831 C.ar    1  UNL1       -0.0351
     23 H           1.0039    1.9031    0.0027 H       1  UNL1        0.0243
     24 H          -0.5459    1.8868   -0.8726 H       1  UNL1        0.0243
     25 H          -0.5289    1.8773    0.9072 H       1  UNL1        0.0243
     26 H           0.5293   -0.3651    0.8851 H       1  UNL1        0.0441
     27 H          -1.0205   -0.3814    0.0098 H       1  UNL1        0.0441
     28 H           2.5098   -0.5199   -2.2412 H       1  UNL1        0.0441
     29 H           2.5833    0.2026   -0.6162 H       1  UNL1        0.0441
     30 H           2.1912   -2.0280    0.3934 H       1  UNL1        0.0243
     31 H           2.1177   -2.7506   -1.2316 H       1  UNL1        0.0243
     32 H           3.6395   -2.0407   -0.6413 H       1  UNL1        0.0243
     33 H          -2.1485    1.2135   -2.5796 H       1  UNL1        0.0637
     34 H          -2.3583    3.2539   -3.9419 H       1  UNL1        0.0621
     35 H          -0.2543    3.9556   -6.8687 H       1  UNL1        0.0318
     36 H          -1.7555    4.3750   -6.0092 H       1  UNL1        0.0318
     37 H          -0.4267    5.4502   -4.2129 H       1  UNL1        0.0361
     38 H           1.0745    5.0308   -5.0723 H       1  UNL1        0.0361
     39 H           0.9404    7.7052   -4.7686 H       1  UNL1        0.1489
     40 H          -0.6463    8.9065   -6.9056 H       1  UNL1        0.0493
     41 H           1.4389   10.1121   -5.0306 H       1  UNL1        0.0247
     42 H           0.3712   11.0275   -6.1216 H       1  UNL1        0.0247
     43 H          -0.3207   10.1101   -4.7622 H       1  UNL1        0.0247
     44 H           1.3334    8.0378   -8.1200 H       1  UNL1        0.0247
     45 H           1.3371    9.8173   -8.0824 H       1  UNL1        0.0247
     46 H           2.4048    8.9019   -6.9914 H       1  UNL1        0.0247
     47 H           1.2392    2.2494   -6.0006 H       1  UNL1        0.0621
     48 H           1.4511    0.2109   -4.6357 H       1  UNL1        0.0637
@<TRIPOS>BOND
     1     1     2    1
     2     1    23    1
     3     1    24    1
     4     1    25    1
     5     2     3    1
     6     2    26    1
     7     2    27    1
     8     3     4    1
     9     6     3    1
    10     4     5    1
    11     4    28    1
    12     4    29    1
    13     5    30    1
    14     5    31    1
    15     5    32    1
    16     6     7    2
    17     6     8    2
    18     6     9    1
    19     9    22   ar
    20     9    10   ar
    21    10    11   ar
    22    10    33    1
    23    11    12   ar
    24    11    34    1
    25    12    13    1
    26    12    21   ar
    27    13    14    1
    28    13    35    1
    29    13    36    1
    30    14    15    1
    31    14    37    1
    32    14    38    1
    33    15    16    2
    34    15    17   am
    35    17    18    1
    36    17    39    1
    37    18    19    1
    38    18    20    1
    39    18    40    1
    40    19    41    1
    41    19    42    1
    42    19    43    1
    43    20    44    1
    44    20    45    1
    45    20    46    1
    46    21    22   ar
    47    21    47    1
    48    22    48    1
