@<TRIPOS>MOLECULE
ZINC000026782520
 57 59 0 0 0
SMALL
GASTEIGER

@<TRIPOS>ATOM
      1 C          -0.0187    1.5258    0.0104 C.3     1  UNL1       -0.0507
      2 C           0.0021   -0.0041    0.0020 C.3     1  UNL1        0.0177
      3 N          -1.3723   -0.5112    0.0124 N.3     1  UNL1       -0.1771
      4 C          -2.1099   -0.6542   -1.2453 C.3     1  UNL1        0.0177
      5 C          -1.7727   -2.0031   -1.8836 C.3     1  UNL1       -0.0507
      6 S          -2.0922   -0.9227    1.4458 S.O2    1  UNL1        0.0608
      7 O          -3.1196   -1.8512    1.1269 O.2     1  UNL1       -0.1528
      8 O          -1.0393   -1.2108    2.3555 O.2     1  UNL1       -0.1528
      9 C          -2.8978    0.5199    2.0580 C.ar    1  UNL1        0.1055
     10 C          -2.2156    1.3954    2.8820 C.ar    1  UNL1       -0.0351
     11 C          -2.8476    2.5271    3.3622 C.ar    1  UNL1       -0.0567
     12 C          -4.1616    2.7836    3.0181 C.ar    1  UNL1       -0.0468
     13 C          -4.8508    4.0171    3.5421 C.3     1  UNL1       -0.0194
     14 C          -4.6371    5.1747    2.5647 C.3     1  UNL1        0.0279
     15 C          -5.3263    6.4082    3.0886 C.2     1  UNL1        0.2138
     16 O          -5.9290    6.3657    4.1402 O.2     1  UNL1       -0.2758
     17 N          -5.2728    7.5587    2.3886 N.am    1  UNL1       -0.3082
     18 C          -5.9428    8.7579    2.8979 C.3     1  UNL1        0.0549
     19 H          -5.8780    8.7750    3.9859 H       1  UNL1        0.0550
     20 C          -5.2605   10.0036    2.3273 C.3     1  UNL1        0.0041
     21 C          -6.1463   11.2192    2.6288 C.3     1  UNL1        0.0916
     22 O          -7.3769   11.0668    1.9200 O.3     1  UNL1       -0.4916
     23 C          -8.0279    9.8793    2.0272 C.ar    1  UNL1        0.1254
     24 C          -9.3699    9.8232    1.6657 C.ar    1  UNL1       -0.0196
     25 C         -10.0642    8.6338    1.7557 C.ar    1  UNL1       -0.0583
     26 C          -9.4252    7.4938    2.2065 C.ar    1  UNL1       -0.0612
     27 C          -8.0931    7.5465    2.5688 C.ar    1  UNL1       -0.0533
     28 C          -7.3918    8.7380    2.4819 C.ar    1  UNL1        0.0145
     29 C          -4.8434    1.9088    2.1930 C.ar    1  UNL1       -0.0567
     30 C          -4.2102    0.7790    1.7096 C.ar    1  UNL1       -0.0351
     31 H           1.0039    1.9031    0.0027 H       1  UNL1        0.0243
     32 H          -0.5459    1.8868   -0.8726 H       1  UNL1        0.0243
     33 H          -0.5289    1.8773    0.9072 H       1  UNL1        0.0243
     34 H           0.5123   -0.3556   -0.8948 H       1  UNL1        0.0441
     35 H           0.5293   -0.3651    0.8851 H       1  UNL1        0.0441
     36 H          -3.1804   -0.6037   -1.0465 H       1  UNL1        0.0441
     37 H          -1.8283    0.1500   -1.9251 H       1  UNL1        0.0441
     38 H          -0.7022   -2.0536   -2.0825 H       1  UNL1        0.0243
     39 H          -2.0544   -2.8073   -1.2038 H       1  UNL1        0.0243
     40 H          -2.3215   -2.1096   -2.8194 H       1  UNL1        0.0243
     41 H          -1.1890    1.1950    3.1509 H       1  UNL1        0.0637
     42 H          -2.3149    3.2108    4.0066 H       1  UNL1        0.0621
     43 H          -5.9180    3.8210    3.6452 H       1  UNL1        0.0318
     44 H          -4.4342    4.2808    4.5142 H       1  UNL1        0.0318
     45 H          -3.5699    5.3709    2.4615 H       1  UNL1        0.0361
     46 H          -5.0537    4.9110    1.5925 H       1  UNL1        0.0361
     47 H          -4.7908    7.5927    1.5475 H       1  UNL1        0.1493
     48 H          -4.2849   10.1350    2.7953 H       1  UNL1        0.0319
     49 H          -5.1399    9.8953    1.2495 H       1  UNL1        0.0319
     50 H          -6.3436   11.2733    3.6994 H       1  UNL1        0.0697
     51 H          -5.6443   12.1296    2.3011 H       1  UNL1        0.0697
     52 H          -9.8701   10.7131    1.3132 H       1  UNL1        0.0654
     53 H         -11.1062    8.5938    1.4744 H       1  UNL1        0.0619
     54 H          -9.9673    6.5623    2.2757 H       1  UNL1        0.0618
     55 H          -7.5961    6.6545    2.9206 H       1  UNL1        0.0622
     56 H          -5.8699    2.1094    1.9238 H       1  UNL1        0.0621
     57 H          -4.7428    0.0956    1.0650 H       1  UNL1        0.0637
@<TRIPOS>BOND
     1     1     2    1
     2     1    31    1
     3     1    32    1
     4     1    33    1
     5     2     3    1
     6     2    34    1
     7     2    35    1
     8     3     4    1
     9     6     3    1
    10     4     5    1
    11     4    36    1
    12     4    37    1
    13     5    38    1
    14     5    39    1
    15     5    40    1
    16     6     7    2
    17     6     8    2
    18     6     9    1
    19     9    30   ar
    20     9    10   ar
    21    10    11   ar
    22    10    41    1
    23    11    12   ar
    24    11    42    1
    25    12    13    1
    26    12    29   ar
    27    13    14    1
    28    13    43    1
    29    13    44    1
    30    14    15    1
    31    14    45    1
    32    14    46    1
    33    15    16    2
    34    15    17   am
    35    17    18    1
    36    17    47    1
    37    18    19    1
    38    18    28    1
    39    18    20    1
    40    20    21    1
    41    20    48    1
    42    20    49    1
    43    21    22    1
    44    21    50    1
    45    21    51    1
    46    22    23    1
    47    23    28   ar
    48    23    24   ar
    49    24    25   ar
    50    24    52    1
    51    25    26   ar
    52    25    53    1
    53    26    27   ar
    54    26    54    1
    55    27    28   ar
    56    27    55    1
    57    29    30   ar
    58    29    56    1
    59    30    57    1
