@<TRIPOS>MOLECULE
ZINC000016576321
 62 64 0 0 0
SMALL
GASTEIGER

@<TRIPOS>ATOM
      1 C          -0.0187    1.5258    0.0104 C.3     1  UNL1       -0.0466
      2 C           0.0021   -0.0041    0.0020 C.3     1  UNL1        0.0206
      3 H           0.5123   -0.3556   -0.8948 H       1  UNL1        0.0495
      4 C          -1.4333   -0.5336    0.0129 C.3     1  UNL1       -0.0308
      5 C          -1.4157   -2.0577   -0.1212 C.3     1  UNL1       -0.0260
      6 C          -2.8295   -2.5793   -0.1105 C.ar    1  UNL1       -0.0473
      7 C          -3.4324   -2.9175    1.0866 C.ar    1  UNL1       -0.0586
      8 C          -4.7292   -3.3959    1.0964 C.ar    1  UNL1       -0.0615
      9 C          -5.4233   -3.5358   -0.0908 C.ar    1  UNL1       -0.0617
     10 C          -4.8208   -3.1967   -1.2878 C.ar    1  UNL1       -0.0615
     11 C          -3.5254   -2.7142   -1.2973 C.ar    1  UNL1       -0.0586
     12 N           0.7106   -0.4894    1.1889 N.am    1  UNL1       -0.3116
     13 C           2.0538   -0.5998    1.1737 C.2     1  UNL1        0.2290
     14 O           2.6758   -0.2974    0.1774 O.2     1  UNL1       -0.2743
     15 C           2.7826   -1.0990    2.3946 C.3     1  UNL1        0.0971
     16 N           4.2226   -1.1273    2.1261 N.3     1  UNL1       -0.1648
     17 C           5.0266    0.0829    2.3137 C.3     1  UNL1        0.0324
     18 C           4.5016    1.1909    1.3984 C.3     1  UNL1       -0.0357
     19 C           5.3413    2.4548    1.5943 C.3     1  UNL1       -0.0516
     20 C           5.2459    2.9096    3.0520 C.3     1  UNL1       -0.0530
     21 C           5.7708    1.8016    3.9673 C.3     1  UNL1       -0.0516
     22 C           4.9312    0.5377    3.7714 C.3     1  UNL1       -0.0357
     23 S           4.9414   -2.5273    1.6107 S.O2    1  UNL1        0.0615
     24 O           6.3143   -2.4267    1.9631 O.2     1  UNL1       -0.1528
     25 O           4.1040   -3.5909    2.0427 O.2     1  UNL1       -0.1528
     26 C           4.8785   -2.5282   -0.1502 C.ar    1  UNL1        0.1055
     27 C           3.7925   -3.0812   -0.8027 C.ar    1  UNL1       -0.0353
     28 C           3.7431   -3.0819   -2.1841 C.ar    1  UNL1       -0.0599
     29 C           4.7795   -2.5293   -2.9131 C.ar    1  UNL1       -0.0616
     30 C           5.8651   -1.9756   -2.2606 C.ar    1  UNL1       -0.0599
     31 C           5.9124   -1.9710   -0.8791 C.ar    1  UNL1       -0.0353
     32 H           1.0039    1.9031    0.0027 H       1  UNL1        0.0247
     33 H          -0.5459    1.8868   -0.8726 H       1  UNL1        0.0247
     34 H          -0.5289    1.8773    0.9072 H       1  UNL1        0.0247
     35 H          -1.9156   -0.2570    0.9504 H       1  UNL1        0.0286
     36 H          -1.9862   -0.1019   -0.8214 H       1  UNL1        0.0286
     37 H          -0.9334   -2.3344   -1.0587 H       1  UNL1        0.0314
     38 H          -0.8628   -2.4894    0.7131 H       1  UNL1        0.0314
     39 H          -2.8901   -2.8082    2.0141 H       1  UNL1        0.0620
     40 H          -5.2000   -3.6608    2.0316 H       1  UNL1        0.0618
     41 H          -6.4363   -3.9103   -0.0832 H       1  UNL1        0.0618
     42 H          -5.3630   -3.3063   -2.2154 H       1  UNL1        0.0618
     43 H          -3.0546   -2.4493   -2.2324 H       1  UNL1        0.0620
     44 H           0.2131   -0.7312    1.9857 H       1  UNL1        0.1490
     45 H           2.5826   -0.4337    3.2345 H       1  UNL1        0.0539
     46 H           2.4385   -2.1044    2.6374 H       1  UNL1        0.0539
     47 H           6.0667   -0.1300    2.0669 H       1  UNL1        0.0480
     48 H           4.5696    0.8669    0.3599 H       1  UNL1        0.0281
     49 H           3.4615    1.4038    1.6453 H       1  UNL1        0.0281
     50 H           6.3814    2.2419    1.3474 H       1  UNL1        0.0266
     51 H           4.9673    3.2441    0.9422 H       1  UNL1        0.0266
     52 H           5.8441    3.8100    3.1916 H       1  UNL1        0.0265
     53 H           4.2058    3.1225    3.2989 H       1  UNL1        0.0265
     54 H           6.8110    1.5887    3.7205 H       1  UNL1        0.0266
     55 H           5.7029    2.1256    5.0058 H       1  UNL1        0.0266
     56 H           3.8911    0.7506    4.0183 H       1  UNL1        0.0281
     57 H           5.3051   -0.2516    4.4235 H       1  UNL1        0.0281
     58 H           2.9827   -3.5129   -0.2331 H       1  UNL1        0.0637
     59 H           2.8949   -3.5146   -2.6939 H       1  UNL1        0.0618
     60 H           4.7412   -2.5305   -3.9924 H       1  UNL1        0.0618
     61 H           6.6749   -1.5441   -2.8301 H       1  UNL1        0.0618
     62 H           6.7606   -1.5383   -0.3693 H       1  UNL1        0.0637
@<TRIPOS>BOND
     1     1     2    1
     2     1    32    1
     3     1    33    1
     4     1    34    1
     5     2     3    1
     6     2     4    1
     7     2    12    1
     8     4     5    1
     9     4    35    1
    10     4    36    1
    11     5     6    1
    12     5    37    1
    13     5    38    1
    14     6    11   ar
    15     6     7   ar
    16     7     8   ar
    17     7    39    1
    18     8     9   ar
    19     8    40    1
    20     9    10   ar
    21     9    41    1
    22    10    11   ar
    23    10    42    1
    24    11    43    1
    25    12    13   am
    26    12    44    1
    27    13    14    2
    28    13    15    1
    29    15    16    1
    30    15    45    1
    31    15    46    1
    32    16    17    1
    33    23    16    1
    34    17    22    1
    35    17    18    1
    36    17    47    1
    37    18    19    1
    38    18    48    1
    39    18    49    1
    40    19    20    1
    41    19    50    1
    42    19    51    1
    43    20    21    1
    44    20    52    1
    45    20    53    1
    46    21    22    1
    47    21    54    1
    48    21    55    1
    49    22    56    1
    50    22    57    1
    51    23    24    2
    52    23    25    2
    53    23    26    1
    54    26    31   ar
    55    26    27   ar
    56    27    28   ar
    57    27    58    1
    58    28    29   ar
    59    28    59    1
    60    29    30   ar
    61    29    60    1
    62    30    31   ar
    63    30    61    1
    64    31    62    1
