@<TRIPOS>MOLECULE
ZINC000016625016
 40 41 0 0 0
SMALL
GASTEIGER

@<TRIPOS>ATOM
      1 C          -0.0178    1.4608    0.0101 C.3     1  UNL1        0.0086
      2 N           0.0021   -0.0041    0.0020 N.3     1  UNL1       -0.1827
      3 C           0.0241   -0.7433    1.2666 C.3     1  UNL1        0.0086
      4 S          -0.0004   -0.8243   -1.4366 S.O2    1  UNL1        0.0604
      5 O          -0.5247   -2.1160   -1.1611 O.2     1  UNL1       -0.1529
      6 O          -0.5660    0.0551   -2.3989 O.2     1  UNL1       -0.1529
      7 C           1.6816   -1.0597   -1.9056 C.ar    1  UNL1        0.1055
      8 C           2.3234   -0.1095   -2.6777 C.ar    1  UNL1       -0.0351
      9 C           3.6430   -0.2942   -3.0457 C.ar    1  UNL1       -0.0567
     10 C           4.3210   -1.4289   -2.6412 C.ar    1  UNL1       -0.0468
     11 C           5.7594   -1.6304   -3.0428 C.3     1  UNL1       -0.0194
     12 C           6.6758   -1.0157   -1.9829 C.3     1  UNL1        0.0279
     13 C           8.1142   -1.2173   -2.3845 C.2     1  UNL1        0.2135
     14 O           8.3803   -1.7957   -3.4168 O.2     1  UNL1       -0.2758
     15 N           9.1050   -0.7549   -1.5965 N.am    1  UNL1       -0.3124
     16 C          10.5034   -0.9508   -1.9869 C.3     1  UNL1        0.0232
     17 C          11.4559    0.2350   -1.8211 C.3     1  UNL1       -0.0328
     18 C          11.5527   -0.9623   -0.8735 C.3     1  UNL1       -0.0328
     19 C           3.6797   -2.3784   -1.8680 C.ar    1  UNL1       -0.0567
     20 C           2.3612   -2.1919   -1.4968 C.ar    1  UNL1       -0.0351
     21 H           1.0048    1.8381    0.0023 H       1  UNL1        0.0408
     22 H          -0.5450    1.8219   -0.8730 H       1  UNL1        0.0408
     23 H          -0.5280    1.8123    0.9069 H       1  UNL1        0.0408
     24 H          -0.9979   -0.9406    1.5900 H       1  UNL1        0.0408
     25 H           0.5496   -1.6879    1.1262 H       1  UNL1        0.0408
     26 H           0.5371   -0.1514    2.0246 H       1  UNL1        0.0408
     27 H           1.7936    0.7771   -2.9938 H       1  UNL1        0.0637
     28 H           4.1441    0.4479   -3.6495 H       1  UNL1        0.0621
     29 H           5.9668   -2.6971   -3.1279 H       1  UNL1        0.0318
     30 H           5.9396   -1.1475   -4.0032 H       1  UNL1        0.0318
     31 H           6.4684    0.0510   -1.8978 H       1  UNL1        0.0361
     32 H           6.4956   -1.4987   -1.0225 H       1  UNL1        0.0361
     33 H           8.8922   -0.2923   -0.7709 H       1  UNL1        0.1490
     34 H          10.6656   -1.6119   -2.8382 H       1  UNL1        0.0498
     35 H          12.2450    0.3542   -2.5636 H       1  UNL1        0.0284
     36 H          11.0422    1.1609   -1.4216 H       1  UNL1        0.0284
     37 H          11.2026   -0.8241    0.1495 H       1  UNL1        0.0284
     38 H          12.4055   -1.6307   -0.9925 H       1  UNL1        0.0284
     39 H           4.2095   -3.2648   -1.5516 H       1  UNL1        0.0621
     40 H           1.8602   -2.9338   -0.8927 H       1  UNL1        0.0637
@<TRIPOS>BOND
     1     1     2    1
     2     1    21    1
     3     1    22    1
     4     1    23    1
     5     2     3    1
     6     4     2    1
     7     3    24    1
     8     3    25    1
     9     3    26    1
    10     4     5    2
    11     4     6    2
    12     4     7    1
    13     7    20   ar
    14     7     8   ar
    15     8     9   ar
    16     8    27    1
    17     9    10   ar
    18     9    28    1
    19    10    11    1
    20    10    19   ar
    21    11    12    1
    22    11    29    1
    23    11    30    1
    24    12    13    1
    25    12    31    1
    26    12    32    1
    27    13    14    2
    28    13    15   am
    29    15    16    1
    30    15    33    1
    31    16    18    1
    32    16    17    1
    33    16    34    1
    34    17    18    1
    35    17    35    1
    36    17    36    1
    37    18    37    1
    38    18    38    1
    39    19    20   ar
    40    19    39    1
    41    20    40    1
