@<TRIPOS>MOLECULE
ZINC000408784474
 61 62 0 0 0
SMALL
GASTEIGER

@<TRIPOS>ATOM
      1 C          -0.0173    1.4248    0.0099 C.3     1  UNL1        0.0364
      2 O           0.0021   -0.0041    0.0020 O.3     1  UNL1       -0.3829
      3 C          -1.2953   -0.6030    0.0112 C.3     1  UNL1        0.0487
      4 C          -1.1538   -2.1264    0.0017 C.3     1  UNL1       -0.0139
      5 C          -2.5429   -2.7677    0.0115 C.3     1  UNL1        0.0137
      6 N          -2.4075   -4.2264    0.0023 N.am    1  UNL1       -0.3141
      7 C          -3.5073   -5.0054    0.0087 C.2     1  UNL1        0.2288
      8 O          -4.6092   -4.4987    0.0219 O.2     1  UNL1       -0.2743
      9 C          -3.3680   -6.5059   -0.0007 C.3     1  UNL1        0.0968
     10 N          -4.6980   -7.1199    0.0087 N.3     1  UNL1       -0.1675
     11 C          -5.4215   -7.3197   -1.2495 C.3     1  UNL1        0.0250
     12 C          -4.9787   -8.6374   -1.8887 C.3     1  UNL1       -0.0132
     13 C          -5.7228   -8.8429   -3.1829 C.ar    1  UNL1       -0.0461
     14 C          -6.9337   -9.5099   -3.1855 C.ar    1  UNL1       -0.0585
     15 C          -7.6163   -9.6984   -4.3727 C.ar    1  UNL1       -0.0615
     16 C          -7.0883   -9.2197   -5.5571 C.ar    1  UNL1       -0.0617
     17 C          -5.8779   -8.5520   -5.5544 C.ar    1  UNL1       -0.0615
     18 C          -5.1974   -8.3596   -4.3666 C.ar    1  UNL1       -0.0585
     19 S          -5.3838   -7.5881    1.4415 S.O2    1  UNL1        0.0614
     20 O          -6.3345   -8.5945    1.1214 O.2     1  UNL1       -0.1528
     21 O          -4.3117   -7.7929    2.3514 O.2     1  UNL1       -0.1528
     22 C          -6.3010   -6.2141    2.0543 C.ar    1  UNL1        0.1092
     23 C          -5.6890   -5.2892    2.8790 C.ar    1  UNL1       -0.0317
     24 C          -6.4046   -4.2094    3.3630 C.ar    1  UNL1       -0.0145
     25 C          -7.7378   -4.0527    3.0209 C.ar    1  UNL1        0.1616
     26 O          -8.4429   -2.9911    3.4956 O.3     1  UNL1       -0.4915
     27 C          -7.7455   -2.0756    4.3427 C.3     1  UNL1        0.0790
     28 C          -8.3540   -4.9840    2.1900 C.ar    1  UNL1        0.1633
     29 O          -9.6625   -4.8342    1.8510 O.3     1  UNL1       -0.4914
     30 C         -10.2287   -5.8283    0.9947 C.3     1  UNL1        0.0790
     31 C          -7.6300   -6.0605    1.7045 C.ar    1  UNL1        0.0101
     32 H           1.0053    1.8021    0.0021 H       1  UNL1        0.0523
     33 H          -0.5445    1.7859   -0.8732 H       1  UNL1        0.0523
     34 H          -0.5275    1.7763    0.9067 H       1  UNL1        0.0523
     35 H          -1.8320   -0.2936    0.9080 H       1  UNL1        0.0560
     36 H          -1.8490   -0.2840   -0.8718 H       1  UNL1        0.0560
     37 H          -0.6171   -2.4359   -0.8952 H       1  UNL1        0.0302
     38 H          -0.6001   -2.4454    0.8847 H       1  UNL1        0.0302
     39 H          -3.0796   -2.4582    0.9083 H       1  UNL1        0.0463
     40 H          -3.0966   -2.4487   -0.8716 H       1  UNL1        0.0463
     41 H          -1.5262   -4.6316   -0.0082 H       1  UNL1        0.1487
     42 H          -2.8312   -6.8153   -0.8975 H       1  UNL1        0.0539
     43 H          -2.8143   -6.8249    0.8823 H       1  UNL1        0.0539
     44 H          -6.4927   -7.3541   -1.0511 H       1  UNL1        0.0447
     45 H          -5.2040   -6.4953   -1.9285 H       1  UNL1        0.0447
     46 H          -3.9074   -8.6030   -2.0870 H       1  UNL1        0.0326
     47 H          -5.1962   -9.4618   -1.2096 H       1  UNL1        0.0326
     48 H          -7.3462   -9.8839   -2.2601 H       1  UNL1        0.0620
     49 H          -8.5620  -10.2201   -4.3748 H       1  UNL1        0.0618
     50 H          -7.6213   -9.3676   -6.4847 H       1  UNL1        0.0618
     51 H          -5.4653   -8.1782   -6.4798 H       1  UNL1        0.0618
     52 H          -4.2517   -7.8380   -4.3644 H       1  UNL1        0.0620
     53 H          -4.6496   -5.4102    3.1464 H       1  UNL1        0.0638
     54 H          -5.9242   -3.4885    4.0078 H       1  UNL1        0.0656
     55 H          -7.3802   -2.6024    5.2243 H       1  UNL1        0.0660
     56 H          -6.9026   -1.6481    3.7997 H       1  UNL1        0.0660
     57 H          -8.4217   -1.2780    4.6503 H       1  UNL1        0.0660
     58 H         -10.1606   -6.8039    1.4760 H       1  UNL1        0.0660
     59 H         -11.2749   -5.5898    0.8032 H       1  UNL1        0.0660
     60 H          -9.6824   -5.8495    0.0517 H       1  UNL1        0.0660
     61 H          -8.1057   -6.7845    1.0596 H       1  UNL1        0.0675
@<TRIPOS>BOND
     1     1     2    1
     2     1    32    1
     3     1    33    1
     4     1    34    1
     5     2     3    1
     6     3     4    1
     7     3    35    1
     8     3    36    1
     9     4     5    1
    10     4    37    1
    11     4    38    1
    12     5     6    1
    13     5    39    1
    14     5    40    1
    15     6     7   am
    16     6    41    1
    17     7     8    2
    18     7     9    1
    19     9    10    1
    20     9    42    1
    21     9    43    1
    22    10    11    1
    23    19    10    1
    24    11    12    1
    25    11    44    1
    26    11    45    1
    27    12    13    1
    28    12    46    1
    29    12    47    1
    30    13    18   ar
    31    13    14   ar
    32    14    15   ar
    33    14    48    1
    34    15    16   ar
    35    15    49    1
    36    16    17   ar
    37    16    50    1
    38    17    18   ar
    39    17    51    1
    40    18    52    1
    41    19    20    2
    42    19    21    2
    43    19    22    1
    44    22    31   ar
    45    22    23   ar
    46    23    24   ar
    47    23    53    1
    48    24    25   ar
    49    24    54    1
    50    25    26    1
    51    25    28   ar
    52    26    27    1
    53    27    55    1
    54    27    56    1
    55    27    57    1
    56    28    29    1
    57    28    31   ar
    58    29    30    1
    59    30    58    1
    60    30    59    1
    61    30    60    1
    62    31    61    1
