@<TRIPOS>MOLECULE
ZINC000024712255
 40 41 0 0 0
SMALL
GASTEIGER

@<TRIPOS>ATOM
      1 C          -0.3143    1.6913    0.2584 C.3     1  UNL1        0.0029
      2 N          -0.1620    0.2383    0.3661 N.am    1  UNL1       -0.3063
      3 C           1.1064   -0.3333    0.8251 C.3     1  UNL1        0.0029
      4 C          -1.1888   -0.5727    0.0429 C.2     1  UNL1        0.2340
      5 O          -2.2041   -0.1068   -0.4293 O.2     1  UNL1       -0.2738
      6 C          -1.0753   -2.0585    0.2683 C.3     1  UNL1        0.1080
      7 H          -0.6205   -2.2522    1.2397 H       1  UNL1        0.0576
      8 C          -0.2203   -2.6948   -0.8478 C.3     1  UNL1       -0.0260
      9 C          -0.9439   -4.0410   -1.1151 C.3     1  UNL1       -0.0366
     10 C          -2.4269   -3.6432   -0.9093 C.3     1  UNL1        0.0214
     11 N          -2.4079   -2.6766    0.2079 N.3     1  UNL1       -0.1647
     12 S          -3.6767   -2.3453    1.2191 S.O2    1  UNL1        0.0629
     13 O          -3.3592   -1.1252    1.8748 O.2     1  UNL1       -0.1528
     14 O          -4.8592   -2.5312    0.4534 O.2     1  UNL1       -0.1528
     15 C          -3.6898   -3.5911    2.4651 C.ar    1  UNL1        0.1242
     16 C          -4.7183   -4.5129    2.5100 C.ar    1  UNL1       -0.0223
     17 C          -4.7287   -5.4905    3.4876 C.ar    1  UNL1        0.0567
     18 C          -5.8507   -6.4954    3.5360 C.3     1  UNL1        0.4175
     19 F          -5.5144   -7.6077    2.7570 F       1  UNL1       -0.1659
     20 F          -6.0588   -6.8986    4.8594 F       1  UNL1       -0.1659
     21 F          -7.0205   -5.9128    3.0366 F       1  UNL1       -0.1659
     22 C          -3.7102   -5.5467    4.4204 C.ar    1  UNL1       -0.0486
     23 C          -2.6808   -4.6252    4.3765 C.ar    1  UNL1       -0.0410
     24 C          -2.6671   -3.6501    3.3954 C.ar    1  UNL1        0.0673
     25 CL         -1.3746   -2.4924    3.3396 Cl      1  UNL1       -0.0815
     26 H           0.6136    2.1773    0.5599 H       1  UNL1        0.0428
     27 H          -0.5451    1.9570   -0.7732 H       1  UNL1        0.0428
     28 H          -1.1248    2.0209    0.9085 H       1  UNL1        0.0428
     29 H           1.0994   -0.4068    1.9126 H       1  UNL1        0.0428
     30 H           1.2343   -1.3265    0.3947 H       1  UNL1        0.0428
     31 H           1.9293    0.3082    0.5096 H       1  UNL1        0.0428
     32 H          -0.2255   -2.0702   -1.7411 H       1  UNL1        0.0286
     33 H           0.7990   -2.8668   -0.5021 H       1  UNL1        0.0286
     34 H          -0.7690   -4.3828   -2.1352 H       1  UNL1        0.0279
     35 H          -0.6389   -4.7986   -0.3932 H       1  UNL1        0.0279
     36 H          -2.8227   -3.1754   -1.8107 H       1  UNL1        0.0444
     37 H          -3.0207   -4.5175   -0.6427 H       1  UNL1        0.0444
     38 H          -5.5144   -4.4694    1.7814 H       1  UNL1        0.0643
     39 H          -3.7189   -6.3106    5.1838 H       1  UNL1        0.0623
     40 H          -1.8850   -4.6692    5.1053 H       1  UNL1        0.0633
@<TRIPOS>BOND
     1     1     2    1
     2     1    26    1
     3     1    27    1
     4     1    28    1
     5     2     3    1
     6     2     4   am
     7     3    29    1
     8     3    30    1
     9     3    31    1
    10     4     5    2
    11     4     6    1
    12     6     7    1
    13     6    11    1
    14     6     8    1
    15     8     9    1
    16     8    32    1
    17     8    33    1
    18     9    10    1
    19     9    34    1
    20     9    35    1
    21    10    11    1
    22    10    36    1
    23    10    37    1
    24    12    11    1
    25    12    13    2
    26    12    14    2
    27    12    15    1
    28    15    24   ar
    29    15    16   ar
    30    16    17   ar
    31    16    38    1
    32    17    18    1
    33    17    22   ar
    34    18    19    1
    35    18    20    1
    36    18    21    1
    37    22    23   ar
    38    22    39    1
    39    23    24   ar
    40    23    40    1
    41    24    25    1
