@<TRIPOS>MOLECULE
ZINC000007971015
 47 49 0 0 0
SMALL
GASTEIGER

@<TRIPOS>ATOM
      1 O           0.0083    0.7485   -1.2620 O.2     1  UNL1       -0.2737
      2 C          -0.3227    1.4799   -0.3528 C.2     1  UNL1        0.2361
      3 N           0.5726    1.8269    0.5929 N.am    1  UNL1       -0.2842
      4 C           1.8575    1.2730    0.5769 C.ar    1  UNL1        0.0335
      5 C           2.4855    1.0070   -0.6329 C.ar    1  UNL1       -0.0399
      6 C           3.7537    0.4603   -0.6453 C.ar    1  UNL1       -0.0484
      7 C           4.3979    0.1772    0.5451 C.ar    1  UNL1        0.0549
      8 C           5.7815   -0.4198    0.5278 C.3     1  UNL1        0.4174
      9 F           6.7323    0.6064    0.5275 F       1  UNL1       -0.1659
     10 F           5.9586   -1.2193    1.6621 F       1  UNL1       -0.1659
     11 F           5.9380   -1.2009   -0.6223 F       1  UNL1       -0.1659
     12 C           3.7755    0.4413    1.7513 C.ar    1  UNL1       -0.0484
     13 C           2.5096    0.9933    1.7706 C.ar    1  UNL1       -0.0399
     14 C          -1.7334    2.0055   -0.2841 C.3     1  UNL1        0.1081
     15 H          -1.7887    2.8083    0.4511 H       1  UNL1        0.0576
     16 C          -2.1505    2.5381   -1.6585 C.3     1  UNL1       -0.0272
     17 C          -3.6263    2.9414   -1.6184 C.3     1  UNL1       -0.0499
     18 C          -4.4833    1.7154   -1.2950 C.3     1  UNL1       -0.0385
     19 C          -4.0926    1.1735    0.0836 C.3     1  UNL1        0.0213
     20 N          -2.6451    0.9201    0.1024 N.3     1  UNL1       -0.1647
     21 S          -2.0537   -0.5622    0.5445 S.O2    1  UNL1        0.0615
     22 O          -0.7258   -0.3445    1.0010 O.2     1  UNL1       -0.1528
     23 O          -3.0590   -1.1740    1.3410 O.2     1  UNL1       -0.1528
     24 C          -1.9232   -1.5302   -0.9220 C.ar    1  UNL1        0.1055
     25 C          -3.0517   -2.1117   -1.4691 C.ar    1  UNL1       -0.0353
     26 C          -2.9493   -2.8712   -2.6195 C.ar    1  UNL1       -0.0599
     27 C          -1.7185   -3.0488   -3.2232 C.ar    1  UNL1       -0.0616
     28 C          -0.5902   -2.4665   -2.6767 C.ar    1  UNL1       -0.0599
     29 C          -0.6932   -1.7035   -1.5286 C.ar    1  UNL1       -0.0353
     30 H           0.3263    2.4607    1.2847 H       1  UNL1        0.1549
     31 H           1.9826    1.2272   -1.5629 H       1  UNL1        0.0636
     32 H           4.2427    0.2532   -1.5858 H       1  UNL1        0.0624
     33 H           4.2813    0.2191    2.6794 H       1  UNL1        0.0624
     34 H           2.0240    1.1994    2.7130 H       1  UNL1        0.0636
     35 H          -1.5428    3.4067   -1.9119 H       1  UNL1        0.0286
     36 H          -2.0060    1.7609   -2.4090 H       1  UNL1        0.0286
     37 H          -3.7745    3.7008   -0.8507 H       1  UNL1        0.0266
     38 H          -3.9193    3.3437   -2.5881 H       1  UNL1        0.0266
     39 H          -5.5359    1.9985   -1.2896 H       1  UNL1        0.0278
     40 H          -4.3169    0.9460   -2.0489 H       1  UNL1        0.0278
     41 H          -4.3428    1.9079    0.8492 H       1  UNL1        0.0444
     42 H          -4.6289    0.2443    0.2764 H       1  UNL1        0.0444
     43 H          -4.0133   -1.9729   -0.9974 H       1  UNL1        0.0637
     44 H          -3.8309   -3.3260   -3.0465 H       1  UNL1        0.0618
     45 H          -1.6384   -3.6427   -4.1217 H       1  UNL1        0.0618
     46 H           0.3715   -2.6056   -3.1482 H       1  UNL1        0.0618
     47 H           0.1884   -1.2486   -1.1016 H       1  UNL1        0.0637
@<TRIPOS>BOND
     1     1     2    2
     2     2     3   am
     3     2    14    1
     4     3     4    1
     5     3    30    1
     6     4    13   ar
     7     4     5   ar
     8     5     6   ar
     9     5    31    1
    10     6     7   ar
    11     6    32    1
    12     7     8    1
    13     7    12   ar
    14     8     9    1
    15     8    10    1
    16     8    11    1
    17    12    13   ar
    18    12    33    1
    19    13    34    1
    20    14    15    1
    21    14    20    1
    22    14    16    1
    23    16    17    1
    24    16    35    1
    25    16    36    1
    26    17    18    1
    27    17    37    1
    28    17    38    1
    29    18    19    1
    30    18    39    1
    31    18    40    1
    32    19    20    1
    33    19    41    1
    34    19    42    1
    35    21    20    1
    36    21    22    2
    37    21    23    2
    38    21    24    1
    39    24    29   ar
    40    24    25   ar
    41    25    26   ar
    42    25    43    1
    43    26    27   ar
    44    26    44    1
    45    27    28   ar
    46    27    45    1
    47    28    29   ar
    48    28    46    1
    49    29    47    1
