@<TRIPOS>MOLECULE
ZINC000299804013
 30 31 0 0 0
SMALL
GASTEIGER

@<TRIPOS>ATOM
      1 O           0.0021   -0.0041    0.0020 O.co2   1  UNL1       -0.2442
      2 C          -0.0145    1.2150    0.0087 C.2     1  UNL1        0.3776
      3 O           1.0330    1.8389    0.0021 O.co2   1  UNL1       -0.2442
      4 C          -1.3296    1.9507    0.0190 C.3     1  UNL1        0.1443
      5 H          -1.2256    2.9114    0.5234 H       1  UNL1        0.0634
      6 C          -1.8503    2.1479   -1.4180 C.3     1  UNL1        0.0423
      7 N          -3.1303    1.4239   -1.4314 N.am    1  UNL1       -0.2969
      8 C          -3.3447    0.8869   -0.2232 C.2     1  UNL1        0.3033
      9 O          -4.3334    0.2320    0.0453 O.2     1  UNL1       -0.2526
     10 N          -2.3706    1.1381    0.6659 N.am    1  UNL1       -0.2662
     11 C          -2.3489    0.6738    2.0552 C.3     1  UNL1        0.0421
     12 C          -1.6668   -0.6681    2.1258 C.ar    1  UNL1       -0.0300
     13 C          -2.4064   -1.8276    1.9871 C.ar    1  UNL1       -0.0565
     14 C          -1.7807   -3.0585    2.0519 C.ar    1  UNL1       -0.0498
     15 C          -0.4152   -3.1299    2.2549 C.ar    1  UNL1        0.0548
     16 C           0.2669   -4.4718    2.3260 C.3     1  UNL1        0.4174
     17 F           0.6734   -4.8568    1.0439 F       1  UNL1       -0.1659
     18 F           1.3846   -4.3831    3.1626 F       1  UNL1       -0.1659
     19 F          -0.6242   -5.4214    2.8374 F       1  UNL1       -0.1659
     20 C           0.3247   -1.9704    2.3922 C.ar    1  UNL1       -0.0498
     21 C          -0.3005   -0.7394    2.3237 C.ar    1  UNL1       -0.0565
     22 H          -2.0072    3.2062   -1.6262 H       1  UNL1        0.0486
     23 H          -1.1576    1.7137   -2.1389 H       1  UNL1        0.0486
     24 H          -3.7248    1.3475   -2.1940 H       1  UNL1        0.1503
     25 H          -1.8045    1.3909    2.6696 H       1  UNL1        0.0514
     26 H          -3.3707    0.5818    2.4236 H       1  UNL1        0.0514
     27 H          -3.4733   -1.7719    1.8285 H       1  UNL1        0.0621
     28 H          -2.3587   -3.9645    1.9442 H       1  UNL1        0.0623
     29 H           1.3916   -2.0261    2.5505 H       1  UNL1        0.0623
     30 H           0.2776    0.1666    2.4310 H       1  UNL1        0.0621
@<TRIPOS>BOND
     1     1     2   ar
     2     2     3   ar
     3     2     4    1
     4     4     5    1
     5     4    10    1
     6     4     6    1
     7     6     7    1
     8     6    22    1
     9     6    23    1
    10     7     8   am
    11     7    24    1
    12     8     9    2
    13     8    10   am
    14    10    11    1
    15    11    12    1
    16    11    25    1
    17    11    26    1
    18    12    21   ar
    19    12    13   ar
    20    13    14   ar
    21    13    27    1
    22    14    15   ar
    23    14    28    1
    24    15    16    1
    25    15    20   ar
    26    16    17    1
    27    16    18    1
    28    16    19    1
    29    20    21   ar
    30    20    29    1
    31    21    30    1
