@<TRIPOS>MOLECULE
ZINC000408608176
 65 67 0 0 0
SMALL
GASTEIGER

@<TRIPOS>ATOM
      1 C          -3.4432   -8.8417    0.6364 C.3     1  UNL1       -0.0397
      2 C          -2.5320   -7.6540    0.4624 C.ar    1  UNL1       -0.0504
      3 C          -2.2436   -6.8402    1.5419 C.ar    1  UNL1       -0.0585
      4 C          -1.4078   -5.7507    1.3823 C.ar    1  UNL1       -0.0570
      5 C          -0.8601   -5.4754    0.1433 C.ar    1  UNL1       -0.0316
      6 C           0.0507   -4.2875   -0.0308 C.3     1  UNL1        0.0460
      7 N           1.4456   -4.7207    0.0831 N.3     1  UNL1       -0.1635
      8 C           2.0613   -4.8678    1.4042 C.3     1  UNL1        0.0971
      9 C           1.7433   -6.2331    1.9574 C.2     1  UNL1        0.2290
     10 O           1.0687   -7.0070    1.3117 O.2     1  UNL1       -0.2743
     11 N           2.2086   -6.5941    3.1697 N.am    1  UNL1       -0.3116
     12 C           1.8994   -7.9212    3.7075 C.3     1  UNL1        0.0206
     13 H           0.8969   -8.2149    3.3963 H       1  UNL1        0.0495
     14 C           2.9154   -8.9354    3.1781 C.3     1  UNL1       -0.0466
     15 C           1.9678   -7.8809    5.2355 C.3     1  UNL1       -0.0308
     16 C           0.8688   -6.9611    5.7711 C.3     1  UNL1       -0.0260
     17 C           0.9361   -6.9214    7.2761 C.ar    1  UNL1       -0.0473
     18 C           0.2207   -7.8375    8.0243 C.ar    1  UNL1       -0.0586
     19 C           0.2825   -7.8012    9.4048 C.ar    1  UNL1       -0.0615
     20 C           1.0600   -6.8489   10.0370 C.ar    1  UNL1       -0.0617
     21 C           1.7760   -5.9334    9.2888 C.ar    1  UNL1       -0.0615
     22 C           1.7176   -5.9725    7.9082 C.ar    1  UNL1       -0.0586
     23 S           2.3262   -5.0441   -1.2816 S.O2    1  UNL1        0.0616
     24 O           3.2845   -6.0280   -0.9170 O.2     1  UNL1       -0.1528
     25 O           1.3864   -5.2261   -2.3318 O.2     1  UNL1       -0.1528
     26 C           3.2345   -3.5861   -1.6739 C.ar    1  UNL1        0.1055
     27 C           2.7216   -2.6745   -2.5776 C.ar    1  UNL1       -0.0351
     28 C           3.4342   -1.5306   -2.8854 C.ar    1  UNL1       -0.0570
     29 C           4.6595   -1.2982   -2.2891 C.ar    1  UNL1       -0.0503
     30 C           5.4366   -0.0515   -2.6249 C.3     1  UNL1       -0.0397
     31 C           5.1718   -2.2092   -1.3843 C.ar    1  UNL1       -0.0570
     32 C           4.4574   -3.3512   -1.0737 C.ar    1  UNL1       -0.0351
     33 C          -1.1474   -6.2901   -0.9359 C.ar    1  UNL1       -0.0570
     34 C          -1.9802   -7.3817   -0.7754 C.ar    1  UNL1       -0.0585
     35 H          -2.8525   -9.7158    0.9104 H       1  UNL1        0.0278
     36 H          -4.1677   -8.6316    1.4232 H       1  UNL1        0.0278
     37 H          -3.9685   -9.0367   -0.2985 H       1  UNL1        0.0278
     38 H          -2.6715   -7.0552    2.5099 H       1  UNL1        0.0620
     39 H          -1.1830   -5.1145    2.2255 H       1  UNL1        0.0621
     40 H          -0.1132   -3.8449   -1.0133 H       1  UNL1        0.0493
     41 H          -0.1644   -3.5485    0.7410 H       1  UNL1        0.0493
     42 H           3.1418   -4.7542    1.3161 H       1  UNL1        0.0539
     43 H           1.6691   -4.1036    2.0751 H       1  UNL1        0.0539
     44 H           2.7481   -5.9751    3.6862 H       1  UNL1        0.1490
     45 H           2.6853   -9.9228    3.5783 H       1  UNL1        0.0247
     46 H           2.8666   -8.9641    2.0896 H       1  UNL1        0.0247
     47 H           3.9179   -8.6417    3.4894 H       1  UNL1        0.0247
     48 H           1.8256   -8.8862    5.6322 H       1  UNL1        0.0286
     49 H           2.9417   -7.5023    5.5457 H       1  UNL1        0.0286
     50 H           1.0110   -5.9558    5.3744 H       1  UNL1        0.0314
     51 H          -0.1052   -7.3397    5.4608 H       1  UNL1        0.0314
     52 H          -0.3867   -8.5815    7.5304 H       1  UNL1        0.0620
     53 H          -0.2769   -8.5165    9.9894 H       1  UNL1        0.0618
     54 H           1.1077   -6.8200   11.1156 H       1  UNL1        0.0618
     55 H           2.3832   -5.1892    9.7827 H       1  UNL1        0.0618
     56 H           2.2771   -5.2572    7.3236 H       1  UNL1        0.0620
     57 H           1.7643   -2.8560   -3.0435 H       1  UNL1        0.0637
     58 H           3.0338   -0.8187   -3.5919 H       1  UNL1        0.0621
     59 H           5.1560    0.7475   -1.9386 H       1  UNL1        0.0278
     60 H           6.5039   -0.2524   -2.5318 H       1  UNL1        0.0278
     61 H           5.2120    0.2522   -3.6474 H       1  UNL1        0.0278
     62 H           6.1289   -2.0275   -0.9182 H       1  UNL1        0.0621
     63 H           4.8576   -4.0629   -0.3668 H       1  UNL1        0.0637
     64 H          -0.7192   -6.0752   -1.9038 H       1  UNL1        0.0621
     65 H          -2.2047   -8.0182   -1.6186 H       1  UNL1        0.0620
@<TRIPOS>BOND
     1     1     2    1
     2     1    35    1
     3     1    36    1
     4     1    37    1
     5     2    34   ar
     6     2     3   ar
     7     3     4   ar
     8     3    38    1
     9     4     5   ar
    10     4    39    1
    11     5     6    1
    12     5    33   ar
    13     6     7    1
    14     6    40    1
    15     6    41    1
    16     7     8    1
    17    23     7    1
    18     8     9    1
    19     8    42    1
    20     8    43    1
    21     9    10    2
    22     9    11   am
    23    11    12    1
    24    11    44    1
    25    12    13    1
    26    12    14    1
    27    12    15    1
    28    14    45    1
    29    14    46    1
    30    14    47    1
    31    15    16    1
    32    15    48    1
    33    15    49    1
    34    16    17    1
    35    16    50    1
    36    16    51    1
    37    17    22   ar
    38    17    18   ar
    39    18    19   ar
    40    18    52    1
    41    19    20   ar
    42    19    53    1
    43    20    21   ar
    44    20    54    1
    45    21    22   ar
    46    21    55    1
    47    22    56    1
    48    23    24    2
    49    23    25    2
    50    23    26    1
    51    26    32   ar
    52    26    27   ar
    53    27    28   ar
    54    27    57    1
    55    28    29   ar
    56    28    58    1
    57    29    30    1
    58    29    31   ar
    59    30    59    1
    60    30    60    1
    61    30    61    1
    62    31    32   ar
    63    31    62    1
    64    32    63    1
    65    33    34   ar
    66    33    64    1
    67    34    65    1
