@<TRIPOS>MOLECULE
ZINC000408609229
 62 64 0 0 0
SMALL
GASTEIGER

@<TRIPOS>ATOM
      1 C          -0.0184    1.5028    0.0103 C.3     1  UNL1       -0.0397
      2 C           0.0021   -0.0041    0.0020 C.ar    1  UNL1       -0.0504
      3 C           0.0057   -0.6887   -1.1989 C.ar    1  UNL1       -0.0585
      4 C           0.0245   -2.0709   -1.2065 C.ar    1  UNL1       -0.0570
      5 C           0.0400   -2.7685   -0.0132 C.ar    1  UNL1       -0.0316
      6 C           0.0600   -4.2753   -0.0215 C.3     1  UNL1        0.0460
      7 N           1.4475   -4.7453   -0.0315 N.3     1  UNL1       -0.1635
      8 C           2.1835   -4.8824    1.2278 C.3     1  UNL1        0.0971
      9 C           1.8847   -6.2264    1.8405 C.2     1  UNL1        0.2290
     10 O           1.1311   -6.9941    1.2805 O.2     1  UNL1       -0.2743
     11 N           2.4548   -6.5752    3.0108 N.am    1  UNL1       -0.3116
     12 C           2.1643   -7.8817    3.6065 C.3     1  UNL1        0.0206
     13 H           2.0401   -8.6219    2.8160 H       1  UNL1        0.0495
     14 C           0.8770   -7.7926    4.4285 C.3     1  UNL1       -0.0466
     15 C           3.3225   -8.2964    4.5161 C.3     1  UNL1       -0.0308
     16 C           4.5824   -8.5067    3.6739 C.3     1  UNL1       -0.0260
     17 C           5.7232   -8.9152    4.5698 C.ar    1  UNL1       -0.0473
     18 C           6.5362   -7.9515    5.1365 C.ar    1  UNL1       -0.0586
     19 C           7.5827   -8.3262    5.9584 C.ar    1  UNL1       -0.0615
     20 C           7.8159   -9.6645    6.2138 C.ar    1  UNL1       -0.0617
     21 C           7.0023  -10.6282    5.6478 C.ar    1  UNL1       -0.0615
     22 C           5.9533  -10.2533    4.8294 C.ar    1  UNL1       -0.0586
     23 S           2.1840   -5.1215   -1.4662 S.O2    1  UNL1        0.0616
     24 O           3.1329   -6.1386   -1.1755 O.2     1  UNL1       -0.1528
     25 O           1.1441   -5.2789   -2.4218 O.2     1  UNL1       -0.1528
     26 C           3.1081   -3.7066   -1.9649 C.ar    1  UNL1        0.1055
     27 C           2.5164   -2.7371   -2.7527 C.ar    1  UNL1       -0.0353
     28 C           3.2414   -1.6271   -3.1440 C.ar    1  UNL1       -0.0599
     29 C           4.5580   -1.4863   -2.7470 C.ar    1  UNL1       -0.0616
     30 C           5.1495   -2.4554   -1.9584 C.ar    1  UNL1       -0.0599
     31 C           4.4231   -3.5634   -1.5636 C.ar    1  UNL1       -0.0353
     32 C           0.0378   -2.0839    1.1877 C.ar    1  UNL1       -0.0570
     33 C           0.0229   -0.7016    1.1953 C.ar    1  UNL1       -0.0585
     34 H           1.0042    1.8801    0.0026 H       1  UNL1        0.0278
     35 H          -0.5455    1.8639   -0.8728 H       1  UNL1        0.0278
     36 H          -0.5286    1.8543    0.9071 H       1  UNL1        0.0278
     37 H          -0.0064   -0.1436   -2.1312 H       1  UNL1        0.0620
     38 H           0.0266   -2.6057   -2.1448 H       1  UNL1        0.0621
     39 H          -0.4442   -4.6502    0.8692 H       1  UNL1        0.0493
     40 H          -0.4538   -4.6406   -0.9107 H       1  UNL1        0.0493
     41 H           3.2531   -4.8011    1.0342 H       1  UNL1        0.0539
     42 H           1.8777   -4.0936    1.9151 H       1  UNL1        0.0539
     43 H           3.0575   -5.9612    3.4588 H       1  UNL1        0.1490
     44 H           0.0518   -7.4971    3.7805 H       1  UNL1        0.0247
     45 H           0.6608   -8.7647    4.8717 H       1  UNL1        0.0247
     46 H           1.0012   -7.0524    5.2190 H       1  UNL1        0.0247
     47 H           3.5043   -7.5137    5.2526 H       1  UNL1        0.0286
     48 H           3.0684   -9.2248    5.0277 H       1  UNL1        0.0286
     49 H           4.4006   -9.2894    2.9374 H       1  UNL1        0.0314
     50 H           4.8366   -7.5784    3.1623 H       1  UNL1        0.0314
     51 H           6.3540   -6.9058    4.9369 H       1  UNL1        0.0620
     52 H           8.2183   -7.5733    6.4006 H       1  UNL1        0.0618
     53 H           8.6339   -9.9573    6.8553 H       1  UNL1        0.0618
     54 H           7.1847  -11.6739    5.8472 H       1  UNL1        0.0618
     55 H           5.3176  -11.0062    4.3872 H       1  UNL1        0.0620
     56 H           1.4877   -2.8470   -3.0629 H       1  UNL1        0.0637
     57 H           2.7793   -0.8699   -3.7601 H       1  UNL1        0.0618
     58 H           5.1246   -0.6194   -3.0532 H       1  UNL1        0.0618
     59 H           6.1782   -2.3457   -1.6485 H       1  UNL1        0.0618
     60 H           4.8852   -4.3205   -0.9474 H       1  UNL1        0.0637
     61 H           0.0503   -2.6289    2.1200 H       1  UNL1        0.0621
     62 H           0.0211   -0.1667    2.1335 H       1  UNL1        0.0620
@<TRIPOS>BOND
     1     1     2    1
     2     1    34    1
     3     1    35    1
     4     1    36    1
     5     2    33   ar
     6     2     3   ar
     7     3     4   ar
     8     3    37    1
     9     4     5   ar
    10     4    38    1
    11     5     6    1
    12     5    32   ar
    13     6     7    1
    14     6    39    1
    15     6    40    1
    16     7     8    1
    17    23     7    1
    18     8     9    1
    19     8    41    1
    20     8    42    1
    21     9    10    2
    22     9    11   am
    23    11    12    1
    24    11    43    1
    25    12    13    1
    26    12    14    1
    27    12    15    1
    28    14    44    1
    29    14    45    1
    30    14    46    1
    31    15    16    1
    32    15    47    1
    33    15    48    1
    34    16    17    1
    35    16    49    1
    36    16    50    1
    37    17    22   ar
    38    17    18   ar
    39    18    19   ar
    40    18    51    1
    41    19    20   ar
    42    19    52    1
    43    20    21   ar
    44    20    53    1
    45    21    22   ar
    46    21    54    1
    47    22    55    1
    48    23    24    2
    49    23    25    2
    50    23    26    1
    51    26    31   ar
    52    26    27   ar
    53    27    28   ar
    54    27    56    1
    55    28    29   ar
    56    28    57    1
    57    29    30   ar
    58    29    58    1
    59    30    31   ar
    60    30    59    1
    61    31    60    1
    62    32    33   ar
    63    32    61    1
    64    33    62    1
