@<TRIPOS>MOLECULE
ZINC000020032659
 61 62 0 0 0
SMALL
GASTEIGER

@<TRIPOS>ATOM
      1 C          -0.0187    1.5258    0.0104 C.3     1  UNL1       -0.0507
      2 C           0.0021   -0.0041    0.0020 C.3     1  UNL1        0.0177
      3 N          -1.3723   -0.5112    0.0124 N.3     1  UNL1       -0.1771
      4 C          -2.1099   -0.6542   -1.2453 C.3     1  UNL1        0.0177
      5 C          -1.7727   -2.0031   -1.8836 C.3     1  UNL1       -0.0507
      6 S          -2.0922   -0.9227    1.4458 S.O2    1  UNL1        0.0608
      7 O          -3.1196   -1.8512    1.1269 O.2     1  UNL1       -0.1528
      8 O          -1.0393   -1.2108    2.3555 O.2     1  UNL1       -0.1528
      9 C          -2.8978    0.5199    2.0580 C.ar    1  UNL1        0.1057
     10 C          -2.2144    1.3948    2.8821 C.ar    1  UNL1       -0.0319
     11 C          -2.8437    2.5265    3.3633 C.ar    1  UNL1       -0.0181
     12 C          -4.1624    2.7850    3.0187 C.ar    1  UNL1        0.1213
     13 O          -4.7836    3.8979    3.4905 O.3     1  UNL1       -0.4828
     14 C          -6.1417    4.0999    3.0945 C.3     1  UNL1        0.1651
     15 C          -6.6600    5.3744    3.7095 C.2     1  UNL1        0.2509
     16 O          -5.9375    6.0437    4.4172 O.2     1  UNL1       -0.2721
     17 N          -7.9264    5.7703    3.4731 N.am    1  UNL1       -0.3084
     18 C          -8.4302    7.0092    4.0709 C.3     1  UNL1        0.0369
     19 C          -9.8625    7.2223    3.6533 C.ar    1  UNL1       -0.0302
     20 C         -10.1484    7.9286    2.5000 C.ar    1  UNL1       -0.0552
     21 C         -11.4621    8.1240    2.1169 C.ar    1  UNL1       -0.0350
     22 C         -12.4900    7.6128    2.8870 C.ar    1  UNL1        0.1055
     23 S         -14.1646    7.8624    2.3991 S.O2    1  UNL1        0.0604
     24 O         -14.9479    7.7455    3.5789 O.2     1  UNL1       -0.1529
     25 O         -14.1735    9.0174    1.5715 O.2     1  UNL1       -0.1529
     26 N         -14.5875    6.5887    1.4290 N.3     1  UNL1       -0.1827
     27 C         -15.1677    5.3797    2.0188 C.3     1  UNL1        0.0086
     28 C         -14.3815    6.6709   -0.0191 C.3     1  UNL1        0.0086
     29 C         -12.2040    6.9053    4.0397 C.ar    1  UNL1       -0.0350
     30 C         -10.8901    6.7066    4.4207 C.ar    1  UNL1       -0.0552
     31 C          -4.8459    1.9058    2.1913 C.ar    1  UNL1       -0.0181
     32 C          -4.2105    0.7780    1.7088 C.ar    1  UNL1       -0.0319
     33 H           1.0039    1.9031    0.0027 H       1  UNL1        0.0243
     34 H          -0.5459    1.8868   -0.8726 H       1  UNL1        0.0243
     35 H          -0.5289    1.8773    0.9072 H       1  UNL1        0.0243
     36 H           0.5123   -0.3556   -0.8948 H       1  UNL1        0.0441
     37 H           0.5293   -0.3651    0.8851 H       1  UNL1        0.0441
     38 H          -3.1804   -0.6037   -1.0465 H       1  UNL1        0.0441
     39 H          -1.8283    0.1500   -1.9251 H       1  UNL1        0.0441
     40 H          -0.7022   -2.0536   -2.0825 H       1  UNL1        0.0243
     41 H          -2.0544   -2.8073   -1.2038 H       1  UNL1        0.0243
     42 H          -2.3215   -2.1096   -2.8194 H       1  UNL1        0.0243
     43 H          -1.1877    1.1931    3.1500 H       1  UNL1        0.0638
     44 H          -2.3096    3.2093    4.0075 H       1  UNL1        0.0655
     45 H          -6.1966    4.1721    2.0083 H       1  UNL1        0.0795
     46 H          -6.7479    3.2600    3.4339 H       1  UNL1        0.0795
     47 H          -8.5043    5.2349    2.9071 H       1  UNL1        0.1491
     48 H          -8.3753    6.9370    5.1571 H       1  UNL1        0.0512
     49 H          -7.8240    7.8491    3.7315 H       1  UNL1        0.0512
     50 H          -9.3454    8.3281    1.8983 H       1  UNL1        0.0621
     51 H         -11.6855    8.6765    1.2162 H       1  UNL1        0.0637
     52 H         -16.2528    5.4772    2.0537 H       1  UNL1        0.0408
     53 H         -14.9000    4.5148    1.4118 H       1  UNL1        0.0408
     54 H         -14.7821    5.2475    3.0297 H       1  UNL1        0.0408
     55 H         -13.3892    6.2940   -0.2669 H       1  UNL1        0.0408
     56 H         -15.1357    6.0708   -0.5281 H       1  UNL1        0.0408
     57 H         -14.4662    7.7092   -0.3398 H       1  UNL1        0.0408
     58 H         -13.0070    6.5055    4.6411 H       1  UNL1        0.0637
     59 H         -10.6667    6.1538    5.3212 H       1  UNL1        0.0621
     60 H          -5.8726    2.1046    1.9219 H       1  UNL1        0.0655
     61 H          -4.7420    0.0934    1.0644 H       1  UNL1        0.0638
@<TRIPOS>BOND
     1     1     2    1
     2     1    33    1
     3     1    34    1
     4     1    35    1
     5     2     3    1
     6     2    36    1
     7     2    37    1
     8     3     4    1
     9     6     3    1
    10     4     5    1
    11     4    38    1
    12     4    39    1
    13     5    40    1
    14     5    41    1
    15     5    42    1
    16     6     7    2
    17     6     8    2
    18     6     9    1
    19     9    32   ar
    20     9    10   ar
    21    10    11   ar
    22    10    43    1
    23    11    12   ar
    24    11    44    1
    25    12    13    1
    26    12    31   ar
    27    13    14    1
    28    14    15    1
    29    14    45    1
    30    14    46    1
    31    15    16    2
    32    15    17   am
    33    17    18    1
    34    17    47    1
    35    18    19    1
    36    18    48    1
    37    18    49    1
    38    19    30   ar
    39    19    20   ar
    40    20    21   ar
    41    20    50    1
    42    21    22   ar
    43    21    51    1
    44    22    23    1
    45    22    29   ar
    46    23    24    2
    47    23    25    2
    48    23    26    1
    49    26    27    1
    50    26    28    1
    51    27    52    1
    52    27    53    1
    53    27    54    1
    54    28    55    1
    55    28    56    1
    56    28    57    1
    57    29    30   ar
    58    29    58    1
    59    30    59    1
    60    31    32   ar
    61    31    60    1
    62    32    61    1
