@<TRIPOS>MOLECULE
ZINC000011689688
 49 51 0 0 0
SMALL
GASTEIGER

@<TRIPOS>ATOM
      1 C          -0.0178    1.4608    0.0101 C.3     1  UNL1        0.0001
      2 N           0.0021   -0.0041    0.0020 N.am    1  UNL1       -0.3173
      3 C           0.5851   -0.6645   -1.0180 C.2     1  UNL1        0.2286
      4 O           1.0933   -0.0461   -1.9292 O.2     1  UNL1       -0.2744
      5 C           0.6055   -2.1713   -1.0263 C.3     1  UNL1        0.0968
      6 N           1.2912   -2.6438   -2.2316 N.3     1  UNL1       -0.1675
      7 C           2.7512   -2.7639   -2.2442 C.3     1  UNL1        0.0250
      8 C           3.1566   -4.1186   -1.6602 C.3     1  UNL1       -0.0132
      9 C           4.6585   -4.2421   -1.6732 C.ar    1  UNL1       -0.0461
     10 C           5.2983   -4.7796   -2.7744 C.ar    1  UNL1       -0.0585
     11 C           6.6760   -4.8928   -2.7863 C.ar    1  UNL1       -0.0615
     12 C           7.4138   -4.4683   -1.6972 C.ar    1  UNL1       -0.0617
     13 C           6.7741   -3.9300   -0.5964 C.ar    1  UNL1       -0.0615
     14 C           5.3968   -3.8128   -0.5862 C.ar    1  UNL1       -0.0585
     15 S           0.4160   -3.0421   -3.5798 S.O2    1  UNL1        0.0614
     16 O           1.2201   -3.9434   -4.3284 O.2     1  UNL1       -0.1528
     17 O          -0.8935   -3.3598   -3.1286 O.2     1  UNL1       -0.1528
     18 C           0.2659   -1.5820   -4.5545 C.ar    1  UNL1        0.1092
     19 C          -0.8025   -0.7277   -4.3573 C.ar    1  UNL1       -0.0317
     20 C          -0.9249    0.4177   -5.1216 C.ar    1  UNL1       -0.0144
     21 C           0.0246    0.7128   -6.0880 C.ar    1  UNL1        0.1622
     22 O          -0.1136    1.8398   -6.8384 O.3     1  UNL1       -0.4849
     23 C           1.0501    2.2937   -7.5382 C.3     1  UNL1        0.1237
     24 C           1.6974    1.0858   -8.2290 C.3     1  UNL1        0.1237
     25 O           2.0473    0.1286   -7.2234 O.3     1  UNL1       -0.4849
     26 C           1.1013   -0.1445   -6.2836 C.ar    1  UNL1        0.1639
     27 C           1.2201   -1.2899   -5.5111 C.ar    1  UNL1        0.0101
     28 H           1.0048    1.8381    0.0023 H       1  UNL1        0.0426
     29 H          -0.5450    1.8219   -0.8730 H       1  UNL1        0.0426
     30 H          -0.5280    1.8123    0.9069 H       1  UNL1        0.0426
     31 H          -0.4044   -0.4986    0.7308 H       1  UNL1        0.1484
     32 H           1.1327   -2.5324   -0.1432 H       1  UNL1        0.0539
     33 H          -0.4171   -2.5486   -1.0185 H       1  UNL1        0.0539
     34 H           3.1132   -2.6872   -3.2695 H       1  UNL1        0.0447
     35 H           3.1867   -1.9647   -1.6445 H       1  UNL1        0.0447
     36 H           2.7946   -4.1953   -0.6349 H       1  UNL1        0.0326
     37 H           2.7212   -4.9178   -2.2599 H       1  UNL1        0.0326
     38 H           4.7218   -5.1113   -3.6253 H       1  UNL1        0.0620
     39 H           7.1758   -5.3134   -3.6464 H       1  UNL1        0.0618
     40 H           8.4901   -4.5575   -1.7063 H       1  UNL1        0.0618
     41 H           7.3506   -3.5986    0.2547 H       1  UNL1        0.0618
     42 H           4.8969   -3.3923    0.2739 H       1  UNL1        0.0620
     43 H          -1.5433   -0.9556   -3.6052 H       1  UNL1        0.0638
     44 H          -1.7612    1.0832   -4.9660 H       1  UNL1        0.0656
     45 H           0.7644    3.0345   -8.2849 H       1  UNL1        0.0731
     46 H           1.7545    2.7347   -6.8329 H       1  UNL1        0.0731
     47 H           0.9910    0.6410   -8.9299 H       1  UNL1        0.0731
     48 H           2.5937    1.4036   -8.7616 H       1  UNL1        0.0731
     49 H           2.0567   -1.9565   -5.6598 H       1  UNL1        0.0675
@<TRIPOS>BOND
     1     1     2    1
     2     1    28    1
     3     1    29    1
     4     1    30    1
     5     2     3   am
     6     2    31    1
     7     3     4    2
     8     3     5    1
     9     5     6    1
    10     5    32    1
    11     5    33    1
    12     6     7    1
    13    15     6    1
    14     7     8    1
    15     7    34    1
    16     7    35    1
    17     8     9    1
    18     8    36    1
    19     8    37    1
    20     9    14   ar
    21     9    10   ar
    22    10    11   ar
    23    10    38    1
    24    11    12   ar
    25    11    39    1
    26    12    13   ar
    27    12    40    1
    28    13    14   ar
    29    13    41    1
    30    14    42    1
    31    15    16    2
    32    15    17    2
    33    15    18    1
    34    18    27   ar
    35    18    19   ar
    36    19    20   ar
    37    19    43    1
    38    20    21   ar
    39    20    44    1
    40    21    26   ar
    41    21    22    1
    42    22    23    1
    43    23    24    1
    44    23    45    1
    45    23    46    1
    46    24    25    1
    47    24    47    1
    48    24    48    1
    49    25    26    1
    50    26    27   ar
    51    27    49    1
