@<TRIPOS>MOLECULE
ZINC000009478178
 52 54 0 0 0
SMALL
GASTEIGER

@<TRIPOS>ATOM
      1 C          -0.0187    1.5258    0.0104 C.3     1  UNL1       -0.0234
      2 C           0.0021   -0.0041    0.0020 C.3     1  UNL1        0.1252
      3 H           0.5293   -0.3651    0.8851 H       1  UNL1        0.0782
      4 O          -1.3601   -0.5067    0.0123 O.3     1  UNL1       -0.4567
      5 C          -1.9204   -0.7240    1.2126 C.2     1  UNL1        0.3108
      6 O          -1.2934   -0.5017    2.2212 O.2     1  UNL1       -0.2505
      7 C          -3.3315   -1.2453    1.3021 C.3     1  UNL1        0.0589
      8 C          -3.4192   -2.6025    0.6003 C.3     1  UNL1       -0.0256
      9 C          -4.8621   -3.1132    0.6632 C.3     1  UNL1        0.0213
     10 N          -5.2969   -3.1303    2.0665 N.3     1  UNL1       -0.1765
     11 S          -5.9170   -4.5098    2.7409 S.O2    1  UNL1        0.0609
     12 O          -6.7204   -4.0946    3.8370 O.2     1  UNL1       -0.1528
     13 O          -6.4149   -5.2936    1.6652 O.2     1  UNL1       -0.1528
     14 C          -4.5653   -5.4081    3.4270 C.ar    1  UNL1        0.1060
     15 C          -3.8853   -6.3305    2.6544 C.ar    1  UNL1       -0.0353
     16 C          -2.8247   -7.0353    3.1927 C.ar    1  UNL1       -0.0594
     17 C          -2.4441   -6.8172    4.5034 C.ar    1  UNL1       -0.0500
     18 C          -3.1238   -5.8938    5.2760 C.ar    1  UNL1        0.0567
     19 C          -2.7092   -5.6563    6.7053 C.3     1  UNL1        0.4175
     20 F          -1.6227   -6.4800    7.0187 F       1  UNL1       -0.1659
     21 F          -2.3408   -4.3165    6.8675 F       1  UNL1       -0.1659
     22 F          -3.7793   -5.9520    7.5565 F       1  UNL1       -0.1659
     23 C          -4.1814   -5.1861    4.7365 C.ar    1  UNL1       -0.0237
     24 C          -5.1707   -1.9004    2.8603 C.3     1  UNL1        0.0213
     25 C          -3.7243   -1.4033    2.7728 C.3     1  UNL1       -0.0256
     26 C           0.7074   -0.4901   -1.2379 C.ar    1  UNL1       -0.0074
     27 C           0.0371   -0.5213   -2.4465 C.ar    1  UNL1       -0.0524
     28 C           0.6829   -0.9668   -3.5842 C.ar    1  UNL1       -0.0261
     29 C           2.0020   -1.3815   -3.5133 C.ar    1  UNL1        0.1234
     30 F           2.6345   -1.8168   -4.6249 F       1  UNL1       -0.2055
     31 C           2.6726   -1.3493   -2.3023 C.ar    1  UNL1       -0.0261
     32 C           2.0262   -0.8989   -1.1669 C.ar    1  UNL1       -0.0524
     33 H           1.0039    1.9031    0.0027 H       1  UNL1        0.0269
     34 H          -0.5459    1.8868   -0.8726 H       1  UNL1        0.0269
     35 H          -0.5289    1.8773    0.9072 H       1  UNL1        0.0269
     36 H          -4.0098   -0.5423    0.8186 H       1  UNL1        0.0414
     37 H          -3.1168   -2.4937   -0.4412 H       1  UNL1        0.0286
     38 H          -2.7597   -3.3130    1.0987 H       1  UNL1        0.0286
     39 H          -5.5094   -2.4511    0.0881 H       1  UNL1        0.0444
     40 H          -4.9109   -4.1219    0.2532 H       1  UNL1        0.0444
     41 H          -4.1826   -6.5009    1.6302 H       1  UNL1        0.0637
     42 H          -2.2937   -7.7566    2.5892 H       1  UNL1        0.0618
     43 H          -1.6161   -7.3683    4.9242 H       1  UNL1        0.0623
     44 H          -4.7123   -4.4648    5.3401 H       1  UNL1        0.0642
     45 H          -5.8432   -1.1394    2.4644 H       1  UNL1        0.0444
     46 H          -5.4232   -2.1089    3.8999 H       1  UNL1        0.0444
     47 H          -3.0620   -2.1251    3.2507 H       1  UNL1        0.0286
     48 H          -3.6392   -0.4409    3.2775 H       1  UNL1        0.0286
     49 H          -0.9919   -0.1978   -2.5015 H       1  UNL1        0.0622
     50 H           0.1587   -0.9918   -4.5281 H       1  UNL1        0.0646
     51 H           3.7014   -1.6728   -2.2457 H       1  UNL1        0.0646
     52 H           2.5491   -0.8734   -0.2223 H       1  UNL1        0.0622
@<TRIPOS>BOND
     1     1     2    1
     2     1    33    1
     3     1    34    1
     4     1    35    1
     5     2     3    1
     6     2     4    1
     7     2    26    1
     8     4     5    1
     9     5     6    2
    10     5     7    1
    11     7    25    1
    12     7     8    1
    13     7    36    1
    14     8     9    1
    15     8    37    1
    16     8    38    1
    17     9    10    1
    18     9    39    1
    19     9    40    1
    20    11    10    1
    21    10    24    1
    22    11    12    2
    23    11    13    2
    24    11    14    1
    25    14    23   ar
    26    14    15   ar
    27    15    16   ar
    28    15    41    1
    29    16    17   ar
    30    16    42    1
    31    17    18   ar
    32    17    43    1
    33    18    19    1
    34    18    23   ar
    35    19    20    1
    36    19    21    1
    37    19    22    1
    38    23    44    1
    39    24    25    1
    40    24    45    1
    41    24    46    1
    42    25    47    1
    43    25    48    1
    44    26    32   ar
    45    26    27   ar
    46    27    28   ar
    47    27    49    1
    48    28    29   ar
    49    28    50    1
    50    29    30    1
    51    29    31   ar
    52    31    32   ar
    53    31    51    1
    54    32    52    1
