@<TRIPOS>MOLECULE
ZINC000012630955
 56 57 0 0 0
SMALL
GASTEIGER

@<TRIPOS>ATOM
      1 C           0.0292    1.5413    0.0235 C.3     1  UNL1       -0.0507
      2 C           0.0523    0.0115    0.0193 C.3     1  UNL1        0.0177
      3 N           0.7297   -0.4634   -1.1898 N.3     1  UNL1       -0.1771
      4 C           2.1898   -0.5812   -1.2130 C.3     1  UNL1        0.0177
      5 C           2.6017   -1.9337   -0.6281 C.3     1  UNL1       -0.0507
      6 S          -0.1549   -0.8669   -2.5302 S.O2    1  UNL1        0.0609
      7 O           0.6449   -1.7691   -3.2822 O.2     1  UNL1       -0.1528
      8 O          -1.4605   -1.1853   -2.0684 O.2     1  UNL1       -0.1528
      9 C          -0.3145    0.5902   -3.5079 C.ar    1  UNL1        0.1075
     10 C          -1.3832    1.4432   -3.3047 C.ar    1  UNL1       -0.0318
     11 C          -1.5138    2.5883   -4.0689 C.ar    1  UNL1       -0.0163
     12 C          -0.5725    2.8835   -5.0412 C.ar    1  UNL1        0.1413
     13 O          -0.6993    4.0093   -5.7931 O.3     1  UNL1       -0.4933
     14 C          -1.8286    4.8435   -5.5269 C.3     1  UNL1        0.0789
     15 C           0.5050    2.0242   -5.2465 C.ar    1  UNL1        0.0775
     16 N           1.4606    2.3179   -6.2283 N.am    1  UNL1       -0.2812
     17 C           2.1904    1.3262   -6.7764 C.2     1  UNL1        0.2384
     18 O           1.9520    0.1708   -6.4946 O.2     1  UNL1       -0.2737
     19 C           3.3025    1.6529   -7.7395 C.3     1  UNL1        0.1423
     20 S           4.0893    0.1168   -8.2981 S.O2    1  UNL1       -0.0185
     21 O           4.7246   -0.4972   -7.1851 O.2     1  UNL1       -0.1736
     22 O           3.1439   -0.6270   -9.0546 O.2     1  UNL1       -0.1736
     23 C           5.3690    0.7389   -9.4233 C.3     1  UNL1        0.0912
     24 C           6.1416   -0.4213   -9.9960 C.ar    1  UNL1       -0.0265
     25 C           7.2646   -0.8937   -9.3428 C.ar    1  UNL1       -0.0570
     26 C           7.9732   -1.9580   -9.8681 C.ar    1  UNL1       -0.0615
     27 C           7.5587   -2.5502  -11.0464 C.ar    1  UNL1       -0.0617
     28 C           6.4352   -2.0784  -11.6991 C.ar    1  UNL1       -0.0615
     29 C           5.7240   -1.0169  -11.1715 C.ar    1  UNL1       -0.0570
     30 C           0.6323    0.8806   -4.4724 C.ar    1  UNL1       -0.0105
     31 H           1.0511    1.9201    0.0071 H       1  UNL1        0.0243
     32 H          -0.5051    1.8990   -0.8566 H       1  UNL1        0.0243
     33 H          -0.4748    1.8946    0.9231 H       1  UNL1        0.0243
     34 H           0.5866   -0.3463    0.8994 H       1  UNL1        0.0441
     35 H          -0.9696   -0.3674    0.0358 H       1  UNL1        0.0441
     36 H           2.5440   -0.5069   -2.2411 H       1  UNL1        0.0441
     37 H           2.6285    0.2204   -0.6187 H       1  UNL1        0.0441
     38 H           2.2475   -2.0080    0.4001 H       1  UNL1        0.0243
     39 H           2.1630   -2.7353   -1.2223 H       1  UNL1        0.0243
     40 H           3.6880   -2.0214   -0.6454 H       1  UNL1        0.0243
     41 H          -2.1184    1.2144   -2.5474 H       1  UNL1        0.0638
     42 H          -2.3502    3.2523   -3.9079 H       1  UNL1        0.0655
     43 H          -1.8094    5.7048   -6.1945 H       1  UNL1        0.0660
     44 H          -2.7453    4.2771   -5.6907 H       1  UNL1        0.0660
     45 H          -1.7923    5.1848   -4.4923 H       1  UNL1        0.0660
     46 H           1.5970    3.2350   -6.5134 H       1  UNL1        0.1550
     47 H           2.8945    2.1854   -8.5986 H       1  UNL1        0.0596
     48 H           4.0422    2.2796   -7.2413 H       1  UNL1        0.0596
     49 H           4.9002    1.2983  -10.2329 H       1  UNL1        0.0549
     50 H           6.0479    1.3926   -8.8756 H       1  UNL1        0.0549
     51 H           7.5884   -0.4310   -8.4222 H       1  UNL1        0.0621
     52 H           8.8510   -2.3266   -9.3581 H       1  UNL1        0.0618
     53 H           8.1128   -3.3812  -11.4571 H       1  UNL1        0.0618
     54 H           6.1115   -2.5408  -12.6198 H       1  UNL1        0.0618
     55 H           4.8463   -0.6483  -11.6815 H       1  UNL1        0.0621
     56 H           1.4665    0.2126   -4.6287 H       1  UNL1        0.0657
@<TRIPOS>BOND
     1     1     2    1
     2     1    31    1
     3     1    32    1
     4     1    33    1
     5     2     3    1
     6     2    34    1
     7     2    35    1
     8     3     4    1
     9     6     3    1
    10     4     5    1
    11     4    36    1
    12     4    37    1
    13     5    38    1
    14     5    39    1
    15     5    40    1
    16     6     7    2
    17     6     8    2
    18     6     9    1
    19     9    30   ar
    20     9    10   ar
    21    10    11   ar
    22    10    41    1
    23    11    12   ar
    24    11    42    1
    25    12    13    1
    26    12    15   ar
    27    13    14    1
    28    14    43    1
    29    14    44    1
    30    14    45    1
    31    15    16    1
    32    15    30   ar
    33    16    17   am
    34    16    46    1
    35    17    18    2
    36    17    19    1
    37    20    19    1
    38    19    47    1
    39    19    48    1
    40    20    21    2
    41    20    22    2
    42    20    23    1
    43    23    24    1
    44    23    49    1
    45    23    50    1
    46    24    29   ar
    47    24    25   ar
    48    25    26   ar
    49    25    51    1
    50    26    27   ar
    51    26    52    1
    52    27    28   ar
    53    27    53    1
    54    28    29   ar
    55    28    54    1
    56    29    55    1
    57    30    56    1
