@<TRIPOS>MOLECULE
ZINC000123580116
 36 37 0 0 0
SMALL
GASTEIGER

@<TRIPOS>ATOM
      1 C          -0.1176    1.3881   -0.0313 C.3     1  UNL1       -0.0379
      2 C          -0.0051   -0.1141    0.0122 C.ar    1  UNL1       -0.0241
      3 C          -0.0717   -0.8462   -1.1582 C.ar    1  UNL1       -0.0565
      4 C           0.0315   -2.2244   -1.1182 C.ar    1  UNL1       -0.0498
      5 C           0.2018   -2.8698    0.0920 C.ar    1  UNL1        0.0567
      6 C           0.3139   -4.3720    0.1356 C.3     1  UNL1        0.4175
      7 F           0.2175   -4.8847   -1.1625 F       1  UNL1       -0.1659
      8 F           1.5475   -4.7318    0.6886 F       1  UNL1       -0.1659
      9 F          -0.7194   -4.8941    0.9211 F       1  UNL1       -0.1659
     10 C           0.2699   -2.1373    1.2626 C.ar    1  UNL1       -0.0235
     11 C           0.1705   -0.7594    1.2223 C.ar    1  UNL1        0.1089
     12 S           0.2573    0.1742    2.7141 S.O2    1  UNL1        0.0613
     13 O          -0.8522    1.0620    2.6970 O.2     1  UNL1       -0.1528
     14 O           0.4889   -0.7602    3.7593 O.2     1  UNL1       -0.1528
     15 N           1.6139    1.1194    2.6227 N.3     1  UNL1       -0.1710
     16 C           2.9882    0.6817    2.9282 C.3     1  UNL1        0.0259
     17 C           3.8987    1.6477    2.1297 C.3     1  UNL1        0.0059
     18 C           3.1228    2.9851    2.2586 C.3     1  UNL1       -0.0084
     19 H           3.3533    3.4750    3.2046 H       1  UNL1        0.0863
     20 N           3.4262    3.8730    1.1282 N.4     1  UNL1        0.2217
     21 H           3.1808    3.4133    0.2642 H       1  UNL1        0.1997
     22 H           2.8945    4.7258    1.2183 H       1  UNL1        0.1997
     23 H           4.4116    4.0897    1.1258 H       1  UNL1        0.1997
     24 C           1.6482    2.5322    2.2174 C.3     1  UNL1        0.0633
     25 H           0.8595    1.8195   -0.2487 H       1  UNL1        0.0278
     26 H          -0.8237    1.6772   -0.8098 H       1  UNL1        0.0278
     27 H          -0.4700    1.7542    0.9330 H       1  UNL1        0.0278
     28 H          -0.2048   -0.3419   -2.1038 H       1  UNL1        0.0621
     29 H          -0.0213   -2.7965   -2.0327 H       1  UNL1        0.0623
     30 H           0.4033   -2.6417    2.2082 H       1  UNL1        0.0643
     31 H           3.1858    0.7701    3.9965 H       1  UNL1        0.0446
     32 H           3.1417   -0.3453    2.5968 H       1  UNL1        0.0446
     33 H           4.8852    1.7226    2.5872 H       1  UNL1        0.0333
     34 H           3.9758    1.3396    1.0870 H       1  UNL1        0.0333
     35 H           1.2546    2.6428    1.2070 H       1  UNL1        0.0500
     36 H           1.0581    3.1271    2.9145 H       1  UNL1        0.0500
@<TRIPOS>UNITY_ATOM_ATTR
20 1
charge 1
@<TRIPOS>BOND
     1     1     2    1
     2     1    25    1
     3     1    26    1
     4     1    27    1
     5     2    11   ar
     6     2     3   ar
     7     3     4   ar
     8     3    28    1
     9     4     5   ar
    10     4    29    1
    11     5     6    1
    12     5    10   ar
    13     6     7    1
    14     6     8    1
    15     6     9    1
    16    10    11   ar
    17    10    30    1
    18    11    12    1
    19    12    13    2
    20    12    14    2
    21    12    15    1
    22    15    24    1
    23    15    16    1
    24    16    17    1
    25    16    31    1
    26    16    32    1
    27    17    18    1
    28    17    33    1
    29    17    34    1
    30    18    19    1
    31    18    20    1
    32    18    24    1
    33    20    21    1
    34    20    22    1
    35    20    23    1
    36    24    35    1
    37    24    36    1
