@<TRIPOS>MOLECULE
ZINC000408610992
 62 64 0 0 0
SMALL
GASTEIGER

@<TRIPOS>ATOM
      1 C          -0.0187    1.5258    0.0104 C.3     1  UNL1       -0.0466
      2 C           0.0021   -0.0041    0.0020 C.3     1  UNL1        0.0206
      3 H          -1.0205   -0.3814    0.0098 H       1  UNL1        0.0495
      4 C           0.7421   -0.5109    1.2415 C.3     1  UNL1       -0.0308
      5 C           0.6554   -2.0374    1.2986 C.3     1  UNL1       -0.0260
      6 C           1.3843   -2.5366    2.5195 C.ar    1  UNL1       -0.0473
      7 C           2.7305   -2.8414    2.4443 C.ar    1  UNL1       -0.0586
      8 C           3.3991   -3.2993    3.5642 C.ar    1  UNL1       -0.0615
      9 C           2.7216   -3.4520    4.7594 C.ar    1  UNL1       -0.0617
     10 C           1.3755   -3.1464    4.8348 C.ar    1  UNL1       -0.0615
     11 C           0.7079   -2.6844    3.7160 C.ar    1  UNL1       -0.0586
     12 N           0.6878   -0.4765   -1.2033 N.am    1  UNL1       -0.3116
     13 C           0.0062   -0.6081   -2.3585 C.2     1  UNL1        0.2290
     14 O          -1.1748   -0.3355   -2.4003 O.2     1  UNL1       -0.2743
     15 C           0.7116   -1.0941   -3.5984 C.3     1  UNL1        0.0968
     16 N          -0.2397   -1.1502   -4.7112 N.3     1  UNL1       -0.1675
     17 C          -0.5094    0.0508   -5.5055 C.3     1  UNL1        0.0250
     18 C           0.5452    0.1819   -6.6061 C.3     1  UNL1       -0.0132
     19 C           0.2678    1.4174   -7.4232 C.ar    1  UNL1       -0.0461
     20 C          -0.5539    1.3424   -8.5323 C.ar    1  UNL1       -0.0585
     21 C          -0.8084    2.4757   -9.2818 C.ar    1  UNL1       -0.0615
     22 C          -0.2417    3.6841   -8.9219 C.ar    1  UNL1       -0.0617
     23 C           0.5793    3.7593   -7.8122 C.ar    1  UNL1       -0.0615
     24 C           0.8304    2.6268   -7.0603 C.ar    1  UNL1       -0.0585
     25 S          -1.0101   -2.5712   -5.0711 S.O2    1  UNL1        0.0613
     26 O          -1.2584   -2.5499   -6.4701 O.2     1  UNL1       -0.1528
     27 O          -0.2722   -3.6016   -4.4284 O.2     1  UNL1       -0.1528
     28 C          -2.5864   -2.5236   -4.2852 C.ar    1  UNL1        0.1056
     29 C          -2.7309   -3.0036   -2.9969 C.ar    1  UNL1       -0.0340
     30 C          -3.9671   -2.9665   -2.3799 C.ar    1  UNL1       -0.0415
     31 C          -5.0600   -2.4488   -3.0519 C.ar    1  UNL1        0.0411
     32 CL         -6.6130   -2.4013   -2.2774 Cl      1  UNL1       -0.0835
     33 C          -4.9148   -1.9686   -4.3412 C.ar    1  UNL1       -0.0415
     34 C          -3.6769   -2.0010   -4.9551 C.ar    1  UNL1       -0.0340
     35 H           1.0039    1.9031    0.0027 H       1  UNL1        0.0247
     36 H          -0.5459    1.8868   -0.8726 H       1  UNL1        0.0247
     37 H          -0.5289    1.8773    0.9072 H       1  UNL1        0.0247
     38 H           1.7879   -0.2080    1.1895 H       1  UNL1        0.0286
     39 H           0.2852   -0.0874    2.1360 H       1  UNL1        0.0286
     40 H          -0.3904   -2.3402    1.3506 H       1  UNL1        0.0314
     41 H           1.1123   -2.4609    0.4042 H       1  UNL1        0.0314
     42 H           3.2599   -2.7220    1.5106 H       1  UNL1        0.0620
     43 H           4.4507   -3.5381    3.5053 H       1  UNL1        0.0618
     44 H           3.2437   -3.8105    5.6342 H       1  UNL1        0.0618
     45 H           0.8461   -3.2660    5.7685 H       1  UNL1        0.0618
     46 H          -0.3437   -2.4456    3.7749 H       1  UNL1        0.0620
     47 H           1.6324   -0.6946   -1.1699 H       1  UNL1        0.1490
     48 H           1.5220   -0.4092   -3.8474 H       1  UNL1        0.0539
     49 H           1.1190   -2.0889   -3.4183 H       1  UNL1        0.0539
     50 H          -1.4983   -0.0269   -5.9573 H       1  UNL1        0.0447
     51 H          -0.4726    0.9288   -4.8605 H       1  UNL1        0.0447
     52 H           1.5341    0.2596   -6.1543 H       1  UNL1        0.0326
     53 H           0.5084   -0.6960   -7.2510 H       1  UNL1        0.0326
     54 H          -0.9967    0.3984   -8.8134 H       1  UNL1        0.0620
     55 H          -1.4498    2.4170  -10.1487 H       1  UNL1        0.0618
     56 H          -0.4400    4.5694   -9.5079 H       1  UNL1        0.0618
     57 H           1.0224    4.7033   -7.5313 H       1  UNL1        0.0618
     58 H           1.4717    2.6855   -6.1933 H       1  UNL1        0.0620
     59 H          -1.8777   -3.4080   -2.4725 H       1  UNL1        0.0637
     60 H          -4.0799   -3.3418   -1.3735 H       1  UNL1        0.0633
     61 H          -5.7677   -1.5647   -4.8664 H       1  UNL1        0.0633
     62 H          -3.5633   -1.6259   -5.9615 H       1  UNL1        0.0637
@<TRIPOS>BOND
     1     1     2    1
     2     1    35    1
     3     1    36    1
     4     1    37    1
     5     2     3    1
     6     2     4    1
     7     2    12    1
     8     4     5    1
     9     4    38    1
    10     4    39    1
    11     5     6    1
    12     5    40    1
    13     5    41    1
    14     6    11   ar
    15     6     7   ar
    16     7     8   ar
    17     7    42    1
    18     8     9   ar
    19     8    43    1
    20     9    10   ar
    21     9    44    1
    22    10    11   ar
    23    10    45    1
    24    11    46    1
    25    12    13   am
    26    12    47    1
    27    13    14    2
    28    13    15    1
    29    15    16    1
    30    15    48    1
    31    15    49    1
    32    16    17    1
    33    25    16    1
    34    17    18    1
    35    17    50    1
    36    17    51    1
    37    18    19    1
    38    18    52    1
    39    18    53    1
    40    19    24   ar
    41    19    20   ar
    42    20    21   ar
    43    20    54    1
    44    21    22   ar
    45    21    55    1
    46    22    23   ar
    47    22    56    1
    48    23    24   ar
    49    23    57    1
    50    24    58    1
    51    25    26    2
    52    25    27    2
    53    25    28    1
    54    28    34   ar
    55    28    29   ar
    56    29    30   ar
    57    29    59    1
    58    30    31   ar
    59    30    60    1
    60    31    32    1
    61    31    33   ar
    62    33    34   ar
    63    33    61    1
    64    34    62    1
