@<TRIPOS>MOLECULE
ZINC000155264304
 49 51 0 0 0
SMALL
GASTEIGER

@<TRIPOS>ATOM
      1 O           0.0021   -0.0041    0.0020 O.2     1  UNL1       -0.1409
      2 S          -0.0172    1.4168    0.0098 S.O2    1  UNL1        0.1001
      3 O           1.1617    2.2101    0.0028 O.2     1  UNL1       -0.1409
      4 N          -0.9002    1.8797   -1.3124 N.3     1  UNL1       -0.1565
      5 C          -1.9187    1.0611   -1.9949 C.3     1  UNL1        0.0482
      6 C          -2.8444    2.0850   -2.6982 C.3     1  UNL1        0.0714
      7 H          -3.5702    2.5001   -1.9990 H       1  UNL1        0.0607
      8 O          -3.4998    1.4950   -3.8226 O.3     1  UNL1       -0.3904
      9 C          -1.8269    3.1655   -3.1505 C.3     1  UNL1       -0.0042
     10 C          -0.8028    3.1776   -1.9962 C.3     1  UNL1        0.0602
     11 H          -1.0354    3.9859   -1.3028 H       1  UNL1        0.0530
     12 C           0.5881    3.3595   -2.5469 C.ar    1  UNL1       -0.0285
     13 C           1.2517    2.2886   -3.1159 C.ar    1  UNL1       -0.0565
     14 C           2.5276    2.4554   -3.6210 C.ar    1  UNL1       -0.0498
     15 C           3.1397    3.6932   -3.5576 C.ar    1  UNL1        0.0548
     16 C           4.5309    3.8749   -4.1078 C.3     1  UNL1        0.4174
     17 F           4.4549    4.2419   -5.4557 F       1  UNL1       -0.1659
     18 F           5.1898    4.8772   -3.3880 F       1  UNL1       -0.1659
     19 F           5.2392    2.6742   -3.9906 F       1  UNL1       -0.1659
     20 C           2.4756    4.7644   -2.9898 C.ar    1  UNL1       -0.0498
     21 C           1.1983    4.5985   -2.4881 C.ar    1  UNL1       -0.0565
     22 N          -0.8748    1.8654    1.3536 N.3     1  UNL1       -0.1664
     23 C          -0.6492    3.1794    1.9129 C.3     1  UNL1        0.0215
     24 C           0.4959    3.1116    2.9533 C.3     1  UNL1       -0.0385
     25 C           0.0469    2.4036    4.1619 C.3     1  UNL1       -0.0518
     26 C          -0.3390    0.9459    3.9295 C.3     1  UNL1       -0.0518
     27 C          -1.7740    0.8758    3.4686 C.3     1  UNL1       -0.0385
     28 C          -1.8422    0.9096    1.9273 C.3     1  UNL1        0.0215
     29 H          -1.4495    0.4067   -2.7296 H       1  UNL1        0.0470
     30 H          -2.4831    0.4753   -1.2694 H       1  UNL1        0.0470
     31 H          -4.0725    0.7491   -3.5973 H       1  UNL1        0.2098
     32 H          -1.3521    2.8793   -4.0890 H       1  UNL1        0.0309
     33 H          -2.3118    4.1372   -3.2430 H       1  UNL1        0.0309
     34 H           0.7734    1.3215   -3.1654 H       1  UNL1        0.0621
     35 H           3.0463    1.6185   -4.0649 H       1  UNL1        0.0623
     36 H           2.9538    5.7315   -2.9405 H       1  UNL1        0.0623
     37 H           0.6794    5.4354   -2.0445 H       1  UNL1        0.0621
     38 H          -0.3752    3.8709    1.1161 H       1  UNL1        0.0444
     39 H          -1.5605    3.5285    2.3985 H       1  UNL1        0.0444
     40 H           1.3457    2.5835    2.5206 H       1  UNL1        0.0278
     41 H           0.8012    4.1233    3.2203 H       1  UNL1        0.0278
     42 H           0.8484    2.4360    4.8999 H       1  UNL1        0.0266
     43 H          -0.8163    2.9292    4.5703 H       1  UNL1        0.0266
     44 H           0.3094    0.5153    3.1665 H       1  UNL1        0.0266
     45 H          -0.2278    0.3877    4.8590 H       1  UNL1        0.0266
     46 H          -2.2250   -0.0483    3.8302 H       1  UNL1        0.0278
     47 H          -2.3248    1.7260    3.8708 H       1  UNL1        0.0278
     48 H          -2.8503    1.1918    1.6237 H       1  UNL1        0.0444
     49 H          -1.6239   -0.0862    1.5414 H       1  UNL1        0.0444
@<TRIPOS>BOND
     1     1     2    2
     2     2     3    2
     3     2     4    1
     4     2    22    1
     5     4    10    1
     6     4     5    1
     7     5     6    1
     8     5    29    1
     9     5    30    1
    10     6     7    1
    11     6     8    1
    12     6     9    1
    13     8    31    1
    14     9    10    1
    15     9    32    1
    16     9    33    1
    17    10    11    1
    18    10    12    1
    19    12    21   ar
    20    12    13   ar
    21    13    14   ar
    22    13    34    1
    23    14    15   ar
    24    14    35    1
    25    15    16    1
    26    15    20   ar
    27    16    17    1
    28    16    18    1
    29    16    19    1
    30    20    21   ar
    31    20    36    1
    32    21    37    1
    33    22    28    1
    34    22    23    1
    35    23    24    1
    36    23    38    1
    37    23    39    1
    38    24    25    1
    39    24    40    1
    40    24    41    1
    41    25    26    1
    42    25    42    1
    43    25    43    1
    44    26    27    1
    45    26    44    1
    46    26    45    1
    47    27    28    1
    48    27    46    1
    49    27    47    1
    50    28    48    1
    51    28    49    1
