@<TRIPOS>MOLECULE
ZINC000001119326
 47 48 0 0 0
SMALL
GASTEIGER

@<TRIPOS>ATOM
      1 C          -0.1465    0.9826    0.1859 C.3     1  UNL1        0.0788
      2 O          -0.5853   -0.2898   -0.2941 O.3     1  UNL1       -0.4951
      3 C           0.1432   -0.8580   -1.2921 C.ar    1  UNL1        0.1202
      4 C           1.2599   -0.2054   -1.7930 C.ar    1  UNL1       -0.0182
      5 C           2.0005   -0.7820   -2.8061 C.ar    1  UNL1       -0.0356
      6 C           1.6270   -2.0154   -3.3232 C.ar    1  UNL1        0.0519
      7 N           2.3772   -2.6005   -4.3495 N.pl3   1  UNL1       -0.1960
      8 C           3.1698   -3.8034   -4.0831 C.3     1  UNL1        0.1191
      9 H           3.7393   -4.0679   -4.9740 H       1  UNL1        0.0612
     10 C           2.2362   -4.9577   -3.7132 C.3     1  UNL1       -0.0362
     11 C           4.1173   -3.5381   -2.9416 C.2     1  UNL1        0.2392
     12 O           4.1292   -2.4512   -2.4035 O.2     1  UNL1       -0.2734
     13 N           4.9513   -4.5087   -2.5186 N.am    1  UNL1       -0.2839
     14 C           5.9027   -4.2320   -1.5306 C.ar    1  UNL1        0.0335
     15 C           7.1505   -4.8398   -1.5766 C.ar    1  UNL1       -0.0399
     16 C           8.0874   -4.5646   -0.5998 C.ar    1  UNL1       -0.0484
     17 C           7.7838   -3.6854    0.4234 C.ar    1  UNL1        0.0549
     18 C           8.8083   -3.3879    1.4879 C.3     1  UNL1        0.4174
     19 F           9.5865   -2.2943    1.0934 F       1  UNL1       -0.1659
     20 F           8.1583   -3.0885    2.6900 F       1  UNL1       -0.1659
     21 F           9.6312   -4.5049    1.6683 F       1  UNL1       -0.1659
     22 C           6.5424   -3.0783    0.4718 C.ar    1  UNL1       -0.0484
     23 C           5.6031   -3.3448   -0.5051 C.ar    1  UNL1       -0.0399
     24 S           2.3690   -1.9331   -5.8650 S.O2    1  UNL1        0.0432
     25 C           3.7424   -0.7482   -5.8453 C.3     1  UNL1        0.0738
     26 O           2.6625   -3.0223   -6.7292 O.2     1  UNL1       -0.1552
     27 O           1.1241   -1.2523   -5.9414 O.2     1  UNL1       -0.1552
     28 C           0.5089   -2.6680   -2.8211 C.ar    1  UNL1       -0.0356
     29 C          -0.2276   -2.0925   -1.8044 C.ar    1  UNL1       -0.0182
     30 H           0.8669    0.8935    0.5773 H       1  UNL1        0.0660
     31 H          -0.1580    1.7031   -0.6319 H       1  UNL1        0.0660
     32 H          -0.8135    1.3218    0.9784 H       1  UNL1        0.0660
     33 H           1.5500    0.7540   -1.3909 H       1  UNL1        0.0655
     34 H           2.8698   -0.2735   -3.1963 H       1  UNL1        0.0638
     35 H           1.6723   -4.6964   -2.8178 H       1  UNL1        0.0253
     36 H           1.5458   -5.1445   -4.5357 H       1  UNL1        0.0253
     37 H           2.8254   -5.8548   -3.5226 H       1  UNL1        0.0253
     38 H           4.8920   -5.3989   -2.8991 H       1  UNL1        0.1549
     39 H           7.3880   -5.5271   -2.3751 H       1  UNL1        0.0636
     40 H           9.0580   -5.0370   -0.6350 H       1  UNL1        0.0624
     41 H           6.3083   -2.3921    1.2723 H       1  UNL1        0.0624
     42 H           4.6337   -2.8703   -0.4667 H       1  UNL1        0.0636
     43 H           4.6874   -1.2882   -5.7866 H       1  UNL1        0.0482
     44 H           3.7208   -0.1518   -6.7574 H       1  UNL1        0.0482
     45 H           3.6442   -0.0926   -4.9801 H       1  UNL1        0.0482
     46 H           0.2177   -3.6273   -3.2228 H       1  UNL1        0.0638
     47 H          -1.0970   -2.6001   -1.4135 H       1  UNL1        0.0655
@<TRIPOS>BOND
     1     1     2    1
     2     1    30    1
     3     1    31    1
     4     1    32    1
     5     2     3    1
     6     3    29   ar
     7     3     4   ar
     8     4     5   ar
     9     4    33    1
    10     5     6   ar
    11     5    34    1
    12     6     7    1
    13     6    28   ar
    14     7     8    1
    15    24     7    1
    16     8     9    1
    17     8    10    1
    18     8    11    1
    19    10    35    1
    20    10    36    1
    21    10    37    1
    22    11    12    2
    23    11    13   am
    24    13    14    1
    25    13    38    1
    26    14    23   ar
    27    14    15   ar
    28    15    16   ar
    29    15    39    1
    30    16    17   ar
    31    16    40    1
    32    17    18    1
    33    17    22   ar
    34    18    19    1
    35    18    20    1
    36    18    21    1
    37    22    23   ar
    38    22    41    1
    39    23    42    1
    40    24    25    1
    41    24    26    2
    42    24    27    2
    43    25    43    1
    44    25    44    1
    45    25    45    1
    46    28    29   ar
    47    28    46    1
    48    29    47    1
