@<TRIPOS>MOLECULE
ZINC000002455246
 39 39 0 0 0
SMALL
GASTEIGER

@<TRIPOS>ATOM
      1 C          -0.0173    1.4248    0.0099 C.3     1  UNL1        0.0365
      2 O           0.0021   -0.0041    0.0020 O.3     1  UNL1       -0.3817
      3 C           0.6518   -0.5703   -1.1379 C.3     1  UNL1        0.0617
      4 C           0.6131   -2.0967   -1.0411 C.3     1  UNL1        0.0440
      5 N          -0.7759   -2.5559   -1.1188 N.3     1  UNL1       -0.1722
      6 C          -1.4069   -2.7629   -2.4247 C.3     1  UNL1        0.0440
      7 C          -1.0691   -4.1641   -2.9379 C.3     1  UNL1        0.0617
      8 O          -1.6552   -5.1414   -2.0756 O.3     1  UNL1       -0.3817
      9 C          -1.3985   -6.4913   -2.4679 C.3     1  UNL1        0.0365
     10 S          -1.6327   -2.8409    0.2693 S.O2    1  UNL1        0.0610
     11 O          -2.6643   -3.7550   -0.0764 O.2     1  UNL1       -0.1528
     12 O          -0.6745   -3.0987    1.2865 O.2     1  UNL1       -0.1528
     13 C          -2.4309   -1.3327    0.7085 C.ar    1  UNL1        0.1055
     14 C          -1.7850   -0.4256    1.5301 C.ar    1  UNL1       -0.0346
     15 C          -2.4036    0.7569    1.8780 C.ar    1  UNL1       -0.0458
     16 C          -3.6856    1.0380    1.3988 C.ar    1  UNL1        0.0633
     17 C          -4.3538    2.3011    1.7662 C.2     1  UNL1        0.3865
     18 O          -3.7855    3.1049    2.4917 O.co2   1  UNL1       -0.2406
     19 O          -5.4759    2.5442    1.3451 O.co2   1  UNL1       -0.2406
     20 C          -4.3317    0.1174    0.5697 C.ar    1  UNL1       -0.0458
     21 C          -3.6985   -1.0585    0.2256 C.ar    1  UNL1       -0.0346
     22 H           1.0053    1.8021    0.0021 H       1  UNL1        0.0523
     23 H          -0.5445    1.7859   -0.8732 H       1  UNL1        0.0523
     24 H          -0.5275    1.7763    0.9067 H       1  UNL1        0.0523
     25 H           0.1385   -0.2506   -2.0447 H       1  UNL1        0.0573
     26 H           1.6883   -0.2344   -1.1694 H       1  UNL1        0.0573
     27 H           1.1847   -2.5275   -1.8631 H       1  UNL1        0.0466
     28 H           1.0473   -2.4117   -0.0922 H       1  UNL1        0.0466
     29 H          -2.4878   -2.6630   -2.3258 H       1  UNL1        0.0466
     30 H          -1.0362   -2.0187   -3.1294 H       1  UNL1        0.0466
     31 H          -1.4635   -4.2864   -3.9467 H       1  UNL1        0.0573
     32 H           0.0130   -4.2946   -2.9525 H       1  UNL1        0.0573
     33 H          -0.3233   -6.6701   -2.4727 H       1  UNL1        0.0523
     34 H          -1.8768   -7.1716   -1.7632 H       1  UNL1        0.0523
     35 H          -1.7997   -6.6619   -3.4669 H       1  UNL1        0.0523
     36 H          -0.7942   -0.6444    1.9000 H       1  UNL1        0.0637
     37 H          -1.8985    1.4638    2.5195 H       1  UNL1        0.0626
     38 H          -5.3228    0.3280    0.1960 H       1  UNL1        0.0626
     39 H          -4.1966   -1.7710   -0.4152 H       1  UNL1        0.0637
@<TRIPOS>BOND
     1     1     2    1
     2     1    22    1
     3     1    23    1
     4     1    24    1
     5     2     3    1
     6     3     4    1
     7     3    25    1
     8     3    26    1
     9     4     5    1
    10     4    27    1
    11     4    28    1
    12     5     6    1
    13    10     5    1
    14     6     7    1
    15     6    29    1
    16     6    30    1
    17     7     8    1
    18     7    31    1
    19     7    32    1
    20     8     9    1
    21     9    33    1
    22     9    34    1
    23     9    35    1
    24    10    11    2
    25    10    12    2
    26    10    13    1
    27    13    21   ar
    28    13    14   ar
    29    14    15   ar
    30    14    36    1
    31    15    16   ar
    32    15    37    1
    33    16    17    1
    34    16    20   ar
    35    17    18   ar
    36    17    19   ar
    37    20    21   ar
    38    20    38    1
    39    21    39    1
