@<TRIPOS>MOLECULE
ZINC000044451797
 37 38 0 0 0
SMALL
GASTEIGER

@<TRIPOS>ATOM
      1 C          -0.0173    1.4248    0.0099 C.3     1  UNL1        0.0368
      2 O           0.0021   -0.0041    0.0020 O.3     1  UNL1       -0.3797
      3 C           0.6518   -0.5703   -1.1379 C.3     1  UNL1        0.0608
      4 C           2.1403   -0.7576   -0.8355 C.3     1  UNL1       -0.0121
      5 C           2.8399   -1.3324   -2.0713 C.3     1  UNL1        0.0228
      6 N           2.1471   -2.5628   -2.4774 N.3     1  UNL1       -0.1764
      7 S           2.9852   -3.9775   -2.6733 S.O2    1  UNL1        0.0609
      8 O           2.2157   -4.7806   -3.5577 O.2     1  UNL1       -0.1528
      9 O           4.3343   -3.6124   -2.9299 O.2     1  UNL1       -0.1528
     10 C           2.9811   -4.8058   -1.1182 C.ar    1  UNL1        0.1055
     11 C           3.9912   -4.5670   -0.2052 C.ar    1  UNL1       -0.0348
     12 C           3.9880   -5.2168    1.0149 C.ar    1  UNL1       -0.0483
     13 C           2.9744   -6.1052    1.3222 C.ar    1  UNL1        0.0549
     14 C           2.9711   -6.8140    2.6520 C.3     1  UNL1        0.4174
     15 F           2.2656   -6.0486    3.5867 F       1  UNL1       -0.1659
     16 F           2.3567   -8.0631    2.5132 F       1  UNL1       -0.1659
     17 F           4.2881   -6.9883    3.0908 F       1  UNL1       -0.1659
     18 C           1.9636   -6.3430    0.4097 C.ar    1  UNL1       -0.0483
     19 C           1.9647   -5.6903   -0.8088 C.ar    1  UNL1       -0.0348
     20 C           0.6965   -2.5142   -2.7059 C.3     1  UNL1        0.0228
     21 C           0.0210   -1.9262   -1.4631 C.3     1  UNL1       -0.0121
     22 H           1.0053    1.8021    0.0021 H       1  UNL1        0.0524
     23 H          -0.5445    1.7859   -0.8732 H       1  UNL1        0.0524
     24 H          -0.5275    1.7763    0.9067 H       1  UNL1        0.0524
     25 H           0.5360    0.0981   -1.9911 H       1  UNL1        0.0596
     26 H           2.5838    0.2051   -0.5812 H       1  UNL1        0.0303
     27 H           2.2577   -1.4454    0.0019 H       1  UNL1        0.0303
     28 H           2.8017   -0.6064   -2.8835 H       1  UNL1        0.0445
     29 H           3.8782   -1.5601   -1.8305 H       1  UNL1        0.0445
     30 H           4.7831   -3.8729   -0.4452 H       1  UNL1        0.0637
     31 H           4.7775   -5.0307    1.7279 H       1  UNL1        0.0624
     32 H           1.1715   -7.0368    0.6499 H       1  UNL1        0.0624
     33 H           1.1750   -5.8760   -1.5217 H       1  UNL1        0.0637
     34 H           0.4836   -1.8847   -3.5699 H       1  UNL1        0.0445
     35 H           0.3207   -3.5218   -2.8839 H       1  UNL1        0.0445
     36 H           0.1584   -2.6030   -0.6198 H       1  UNL1        0.0303
     37 H          -1.0439   -1.7953   -1.6554 H       1  UNL1        0.0303
@<TRIPOS>BOND
     1     1     2    1
     2     1    22    1
     3     1    23    1
     4     1    24    1
     5     2     3    1
     6     3    21    1
     7     3     4    1
     8     3    25    1
     9     4     5    1
    10     4    26    1
    11     4    27    1
    12     5     6    1
    13     5    28    1
    14     5    29    1
    15     7     6    1
    16     6    20    1
    17     7     8    2
    18     7     9    2
    19     7    10    1
    20    10    19   ar
    21    10    11   ar
    22    11    12   ar
    23    11    30    1
    24    12    13   ar
    25    12    31    1
    26    13    14    1
    27    13    18   ar
    28    14    15    1
    29    14    16    1
    30    14    17    1
    31    18    19   ar
    32    18    32    1
    33    19    33    1
    34    20    21    1
    35    20    34    1
    36    20    35    1
    37    21    36    1
    38    21    37    1
