@<TRIPOS>MOLECULE
ZINC000012785920
 55 57 0 0 0
SMALL
GASTEIGER

@<TRIPOS>ATOM
      1 C          -0.0182    1.4606    0.0100 C.3     1  UNL1        0.0121
      2 N           0.0009   -0.0042    0.0021 N.ar    1  UNL1       -0.3442
      3 C          -0.0900   -0.7900   -1.0984 C.ar    1  UNL1        0.0313
      4 C          -0.0363   -2.0882   -0.7155 C.ar    1  UNL1        0.1236
      5 S          -0.1148   -3.4884   -1.7822 S.O2    1  UNL1        0.0623
      6 O          -0.5730   -4.5734   -0.9870 O.2     1  UNL1       -0.1528
      7 O          -0.7766   -3.0566   -2.9632 O.2     1  UNL1       -0.1528
      8 N           1.4383   -3.8557   -2.2242 N.3     1  UNL1       -0.1765
      9 C           2.0394   -3.2499   -3.4201 C.3     1  UNL1        0.0212
     10 C           3.3649   -2.5908   -3.0258 C.3     1  UNL1       -0.0274
     11 C           4.2551   -3.6220   -2.3286 C.3     1  UNL1        0.0380
     12 C           5.5734   -2.9862   -1.9695 C.2     1  UNL1        0.2165
     13 O           5.7805   -1.8232   -2.2441 O.2     1  UNL1       -0.2755
     14 N           6.5223   -3.7100   -1.3432 N.am    1  UNL1       -0.3110
     15 C           7.8038   -3.0919   -0.9942 C.3     1  UNL1        0.0368
     16 C           8.6807   -4.1071   -0.3076 C.ar    1  UNL1       -0.0303
     17 C           8.6309   -4.2466    1.0668 C.ar    1  UNL1       -0.0565
     18 C           9.4352   -5.1779    1.6967 C.ar    1  UNL1       -0.0498
     19 C          10.2891   -5.9700    0.9521 C.ar    1  UNL1        0.0548
     20 C          11.1663   -6.9848    1.6387 C.3     1  UNL1        0.4174
     21 F          10.4876   -8.2051    1.7257 F       1  UNL1       -0.1659
     22 F          12.3436   -7.1574    0.9030 F       1  UNL1       -0.1659
     23 F          11.4820   -6.5341    2.9250 F       1  UNL1       -0.1659
     24 C          10.3379   -5.8314   -0.4225 C.ar    1  UNL1       -0.0498
     25 C           9.5308   -4.9028   -1.0527 C.ar    1  UNL1       -0.0565
     26 C           3.5645   -4.1173   -1.0558 C.3     1  UNL1       -0.0274
     27 C           2.2434   -4.7889   -1.4244 C.3     1  UNL1        0.0212
     28 C           0.0930   -2.1199    0.6765 C.ar    1  UNL1       -0.0053
     29 C           0.1200   -0.8116    1.1106 C.ar    1  UNL1        0.1058
     30 C           0.2443   -0.3620    2.5013 C.2     1  UNL1        0.2580
     31 N           0.4466   -1.2611    3.4847 N.am    1  UNL1       -0.3241
     32 O           0.1648    0.8229    2.7671 O.2     1  UNL1       -0.2688
     33 H           1.0046    1.8373    0.0120 H       1  UNL1        0.0456
     34 H          -0.5368    1.8220   -0.8780 H       1  UNL1        0.0456
     35 H          -0.5367    1.8124    0.9019 H       1  UNL1        0.0456
     36 H          -0.1893   -0.4385   -2.1148 H       1  UNL1        0.0829
     37 H           2.2232   -4.0216   -4.1676 H       1  UNL1        0.0444
     38 H           1.3640   -2.4974   -3.8273 H       1  UNL1        0.0444
     39 H           3.8675   -2.2213   -3.9196 H       1  UNL1        0.0285
     40 H           3.1704   -1.7601   -2.3475 H       1  UNL1        0.0285
     41 H           4.4286   -4.4641   -2.9985 H       1  UNL1        0.0395
     42 H           6.3567   -4.6402   -1.1236 H       1  UNL1        0.1490
     43 H           8.2964   -2.7402   -1.9007 H       1  UNL1        0.0512
     44 H           7.6305   -2.2495   -0.3246 H       1  UNL1        0.0512
     45 H           7.9638   -3.6278    1.6486 H       1  UNL1        0.0621
     46 H           9.3968   -5.2863    2.7705 H       1  UNL1        0.0623
     47 H          11.0047   -6.4505   -1.0042 H       1  UNL1        0.0623
     48 H           9.5689   -4.7946   -2.1265 H       1  UNL1        0.0621
     49 H           4.2093   -4.8342   -0.5475 H       1  UNL1        0.0285
     50 H           3.3682   -3.2721   -0.3960 H       1  UNL1        0.0285
     51 H           1.7025   -5.0544   -0.5160 H       1  UNL1        0.0444
     52 H           2.4408   -5.6867   -2.0102 H       1  UNL1        0.0444
     53 H           0.1626   -3.0027    1.2946 H       1  UNL1        0.0660
     54 H           0.5831   -2.1963    3.2662 H       1  UNL1        0.1453
     55 H           0.4557   -0.9731    4.4109 H       1  UNL1        0.1453
@<TRIPOS>BOND
     1     1     2    1
     2     1    33    1
     3     1    34    1
     4     1    35    1
     5     2    29   ar
     6     2     3   ar
     7     3     4   ar
     8     3    36    1
     9     4     5    1
    10     4    28   ar
    11     5     6    2
    12     5     7    2
    13     5     8    1
    14     8    27    1
    15     8     9    1
    16     9    10    1
    17     9    37    1
    18     9    38    1
    19    10    11    1
    20    10    39    1
    21    10    40    1
    22    11    12    1
    23    11    26    1
    24    11    41    1
    25    12    13    2
    26    12    14   am
    27    14    15    1
    28    14    42    1
    29    15    16    1
    30    15    43    1
    31    15    44    1
    32    16    25   ar
    33    16    17   ar
    34    17    18   ar
    35    17    45    1
    36    18    19   ar
    37    18    46    1
    38    19    20    1
    39    19    24   ar
    40    20    21    1
    41    20    22    1
    42    20    23    1
    43    24    25   ar
    44    24    47    1
    45    25    48    1
    46    26    27    1
    47    26    49    1
    48    26    50    1
    49    27    51    1
    50    27    52    1
    51    28    29   ar
    52    28    53    1
    53    29    30    1
    54    30    31   am
    55    30    32    2
    56    31    54    1
    57    31    55    1
