@<TRIPOS>MOLECULE
ZINC000039985893
 52 53 0 0 0
SMALL
GASTEIGER

@<TRIPOS>ATOM
      1 C          -0.0187    1.5258    0.0104 C.3     1  UNL1       -0.0507
      2 C           0.0021   -0.0041    0.0020 C.3     1  UNL1        0.0182
      3 N          -1.3723   -0.5112    0.0124 N.3     1  UNL1       -0.1681
      4 C          -2.1099   -0.6542   -1.2453 C.3     1  UNL1        0.0968
      5 C          -1.7778   -1.9829   -1.8740 C.2     1  UNL1        0.2290
      6 O          -1.0015   -2.7362   -1.3256 O.2     1  UNL1       -0.2743
      7 N          -2.3435   -2.3340   -3.0459 N.am    1  UNL1       -0.3116
      8 C          -2.0207   -3.6257   -3.6571 C.3     1  UNL1        0.0206
      9 H          -1.8733   -4.3709   -2.8754 H       1  UNL1        0.0495
     10 C          -0.7398   -3.4931   -4.4833 C.3     1  UNL1       -0.0466
     11 C          -3.1714   -4.0613   -4.5665 C.3     1  UNL1       -0.0308
     12 C          -4.4215   -4.3145   -3.7216 C.3     1  UNL1       -0.0260
     13 C          -5.5549   -4.7436   -4.6174 C.ar    1  UNL1       -0.0473
     14 C          -6.3958   -3.7959   -5.1701 C.ar    1  UNL1       -0.0586
     15 C          -7.4354   -4.1895   -5.9918 C.ar    1  UNL1       -0.0615
     16 C          -7.6338   -5.5307   -6.2611 C.ar    1  UNL1       -0.0617
     17 C          -6.7923   -6.4784   -5.7091 C.ar    1  UNL1       -0.0615
     18 C          -5.7501   -6.0845   -4.8908 C.ar    1  UNL1       -0.0586
     19 S          -2.0922   -0.9227    1.4458 S.O2    1  UNL1        0.0613
     20 O          -3.1196   -1.8512    1.1269 O.2     1  UNL1       -0.1528
     21 O          -1.0393   -1.2108    2.3555 O.2     1  UNL1       -0.1528
     22 C          -2.8978    0.5199    2.0580 C.ar    1  UNL1        0.1056
     23 C          -2.2154    1.3953    2.8820 C.ar    1  UNL1       -0.0343
     24 C          -2.8467    2.5273    3.3620 C.ar    1  UNL1       -0.0459
     25 C          -4.1616    2.7841    3.0178 C.ar    1  UNL1        0.0180
     26 BR         -5.0258    4.3329    3.6738 Br      1  UNL1       -0.0503
     27 C          -4.8441    1.9078    2.1933 C.ar    1  UNL1       -0.0459
     28 C          -4.2103    0.7788    1.7095 C.ar    1  UNL1       -0.0343
     29 H           1.0039    1.9031    0.0027 H       1  UNL1        0.0243
     30 H          -0.5459    1.8868   -0.8726 H       1  UNL1        0.0243
     31 H          -0.5289    1.8773    0.9072 H       1  UNL1        0.0243
     32 H           0.5123   -0.3556   -0.8948 H       1  UNL1        0.0441
     33 H           0.5293   -0.3651    0.8851 H       1  UNL1        0.0441
     34 H          -3.1804   -0.6037   -1.0465 H       1  UNL1        0.0539
     35 H          -1.8283    0.1500   -1.9251 H       1  UNL1        0.0539
     36 H          -2.9644   -1.7315   -3.4845 H       1  UNL1        0.1490
     37 H           0.0799   -3.1827   -3.8354 H       1  UNL1        0.0247
     38 H          -0.4996   -4.4541   -4.9381 H       1  UNL1        0.0247
     39 H          -0.8872   -2.7479   -5.2650 H       1  UNL1        0.0247
     40 H          -3.3772   -3.2758   -5.2936 H       1  UNL1        0.0286
     41 H          -2.8947   -4.9769   -5.0894 H       1  UNL1        0.0286
     42 H          -4.2156   -5.1001   -2.9945 H       1  UNL1        0.0314
     43 H          -4.6982   -3.3990   -3.1987 H       1  UNL1        0.0314
     44 H          -6.2408   -2.7480   -4.9597 H       1  UNL1        0.0620
     45 H          -8.0929   -3.4491   -6.4231 H       1  UNL1        0.0618
     46 H          -8.4465   -5.8383   -6.9025 H       1  UNL1        0.0618
     47 H          -6.9475   -7.5263   -5.9192 H       1  UNL1        0.0618
     48 H          -5.0927   -6.8249   -4.4596 H       1  UNL1        0.0620
     49 H          -1.1888    1.1945    3.1509 H       1  UNL1        0.0637
     50 H          -2.3136    3.2110    4.0060 H       1  UNL1        0.0629
     51 H          -5.8707    2.1080    1.9243 H       1  UNL1        0.0629
     52 H          -4.7430    0.0946    1.0657 H       1  UNL1        0.0637
@<TRIPOS>BOND
     1     1     2    1
     2     1    29    1
     3     1    30    1
     4     1    31    1
     5     2     3    1
     6     2    32    1
     7     2    33    1
     8     3     4    1
     9    19     3    1
    10     4     5    1
    11     4    34    1
    12     4    35    1
    13     5     6    2
    14     5     7   am
    15     7     8    1
    16     7    36    1
    17     8     9    1
    18     8    10    1
    19     8    11    1
    20    10    37    1
    21    10    38    1
    22    10    39    1
    23    11    12    1
    24    11    40    1
    25    11    41    1
    26    12    13    1
    27    12    42    1
    28    12    43    1
    29    13    18   ar
    30    13    14   ar
    31    14    15   ar
    32    14    44    1
    33    15    16   ar
    34    15    45    1
    35    16    17   ar
    36    16    46    1
    37    17    18   ar
    38    17    47    1
    39    18    48    1
    40    19    20    2
    41    19    21    2
    42    19    22    1
    43    22    28   ar
    44    22    23   ar
    45    23    24   ar
    46    23    49    1
    47    24    25   ar
    48    24    50    1
    49    25    26    1
    50    25    27   ar
    51    27    28   ar
    52    27    51    1
    53    28    52    1
