@<TRIPOS>MOLECULE
ZINC000042036370
 41 43 0 0 0
SMALL
GASTEIGER

@<TRIPOS>ATOM
      1 C          -0.0173    1.4248    0.0099 C.3     1  UNL1        0.0371
      2 O           0.0021   -0.0041    0.0020 O.3     1  UNL1       -0.3738
      3 C          -1.2953   -0.6030    0.0112 C.3     1  UNL1        0.1235
      4 C          -1.1560   -2.1035    0.0018 C.2     1  UNL1        0.2413
      5 O          -0.0541   -2.6101   -0.0114 O.2     1  UNL1       -0.2731
      6 N          -2.2558   -2.8825    0.0081 N.am    1  UNL1       -0.2989
      7 C          -3.5974   -2.2834    0.0180 C.3     1  UNL1        0.0148
      8 C          -4.3908   -2.8702    1.1897 C.3     1  UNL1       -0.0365
      9 C          -4.3850   -4.3974    1.0906 C.3     1  UNL1       -0.0404
     10 C          -2.9458   -4.9105    1.1767 C.3     1  UNL1        0.0352
     11 H          -2.4995   -4.5860    2.1167 H       1  UNL1        0.0395
     12 C          -2.9439   -6.4161    1.1122 C.ar    1  UNL1        0.1424
     13 N          -3.3953   -7.1486    0.1271 N.ar    1  UNL1       -0.1334
     14 N          -3.2420   -8.3982    0.3934 N.ar    1  UNL1       -0.1294
     15 C          -2.6755   -8.5298    1.5818 C.ar    1  UNL1        0.1611
     16 C          -2.2863   -9.6429    2.3515 C.ar    1  UNL1       -0.0165
     17 C          -1.7134   -9.4413    3.5686 C.ar    1  UNL1       -0.0452
     18 C          -1.5185   -8.1313    4.0391 C.ar    1  UNL1        0.0714
     19 C          -0.8835   -7.9060    5.3871 C.3     1  UNL1        0.4188
     20 F          -1.8643   -7.9758    6.3822 F       1  UNL1       -0.1658
     21 F           0.0846   -8.8896    5.6167 F       1  UNL1       -0.1658
     22 F          -0.2812   -6.6436    5.4137 F       1  UNL1       -0.1658
     23 C          -1.8966   -7.0741    3.2903 C.ar    1  UNL1        0.0245
     24 N          -2.4668   -7.2615    2.0657 N.ar    1  UNL1       -0.2856
     25 C          -2.1361   -4.3468   -0.0009 C.3     1  UNL1        0.0245
     26 H           1.0053    1.8021    0.0021 H       1  UNL1        0.0524
     27 H          -0.5445    1.7859   -0.8732 H       1  UNL1        0.0524
     28 H          -0.5275    1.7763    0.9067 H       1  UNL1        0.0524
     29 H          -1.8320   -0.2936    0.9080 H       1  UNL1        0.0656
     30 H          -1.8490   -0.2840   -0.8718 H       1  UNL1        0.0656
     31 H          -3.5143   -1.2032    0.1374 H       1  UNL1        0.0464
     32 H          -4.1063   -2.5115   -0.9186 H       1  UNL1        0.0464
     33 H          -3.9309   -2.5649    2.1296 H       1  UNL1        0.0281
     34 H          -5.4178   -2.5070    1.1518 H       1  UNL1        0.0281
     35 H          -4.9696   -4.8166    1.9095 H       1  UNL1        0.0273
     36 H          -4.8226   -4.7012    0.1396 H       1  UNL1        0.0273
     37 H          -2.4413  -10.6451    1.9800 H       1  UNL1        0.0655
     38 H          -1.4097  -10.2845    4.1712 H       1  UNL1        0.0625
     39 H          -1.7421   -6.0718    3.6617 H       1  UNL1        0.0819
     40 H          -2.5272   -4.7450   -0.9371 H       1  UNL1        0.0471
     41 H          -1.0884   -4.6273    0.1086 H       1  UNL1        0.0471
@<TRIPOS>BOND
     1     1     2    1
     2     1    26    1
     3     1    27    1
     4     1    28    1
     5     2     3    1
     6     3     4    1
     7     3    29    1
     8     3    30    1
     9     4     5    2
    10     4     6   am
    11     6    25    1
    12     6     7    1
    13     7     8    1
    14     7    31    1
    15     7    32    1
    16     8     9    1
    17     8    33    1
    18     8    34    1
    19     9    10    1
    20     9    35    1
    21     9    36    1
    22    10    11    1
    23    10    12    1
    24    10    25    1
    25    12    24   ar
    26    12    13   ar
    27    13    14   ar
    28    14    15   ar
    29    15    24   ar
    30    15    16   ar
    31    16    17   ar
    32    16    37    1
    33    17    18   ar
    34    17    38    1
    35    18    19    1
    36    18    23   ar
    37    19    20    1
    38    19    21    1
    39    19    22    1
    40    23    24   ar
    41    23    39    1
    42    25    40    1
    43    25    41    1
