@<TRIPOS>MOLECULE
ZINC000077523565
 46 47 0 0 0
SMALL
GASTEIGER

@<TRIPOS>ATOM
      1 C          -0.0184    1.5028    0.0103 C.3     1  UNL1        0.0122
      2 C           0.0021   -0.0041    0.0020 C.2     1  UNL1        0.2102
      3 O           0.0203   -0.6160    1.0489 O.2     1  UNL1       -0.2761
      4 N           0.0001   -0.6716   -1.1688 N.am    1  UNL1       -0.3111
      5 C           0.0199   -2.1365   -1.1769 C.3     1  UNL1        0.0417
      6 H          -0.5406   -2.5373   -0.3323 H       1  UNL1        0.0515
      7 C           1.4735   -2.6720   -1.1831 C.3     1  UNL1        0.0392
      8 N           1.3794   -4.0120   -1.7906 N.3     1  UNL1       -0.1745
      9 S           2.4512   -5.2533   -1.5608 S.O2    1  UNL1        0.0609
     10 O           2.3236   -6.1076   -2.6892 O.2     1  UNL1       -0.1528
     11 O           3.6808   -4.6553   -1.1738 O.2     1  UNL1       -0.1528
     12 C           1.8882   -6.1779   -0.1706 C.ar    1  UNL1        0.1055
     13 C           2.3130   -5.8414    1.1011 C.ar    1  UNL1       -0.0348
     14 C           1.8713   -6.5668    2.1919 C.ar    1  UNL1       -0.0483
     15 C           1.0045   -7.6283    2.0109 C.ar    1  UNL1        0.0549
     16 C           0.5234   -8.4194    3.1999 C.3     1  UNL1        0.4174
     17 F          -0.6529   -7.8471    3.6958 F       1  UNL1       -0.1659
     18 F           0.2718   -9.7395    2.8109 F       1  UNL1       -0.1659
     19 F           1.5048   -8.4061    4.1969 F       1  UNL1       -0.1659
     20 C           0.5787   -7.9639    0.7393 C.ar    1  UNL1       -0.0483
     21 C           1.0174   -7.2361   -0.3510 C.ar    1  UNL1       -0.0348
     22 C           0.1759   -4.0640   -2.6335 C.3     1  UNL1        0.0254
     23 C          -0.5237   -2.6926   -2.5194 C.3     1  UNL1       -0.0046
     24 H          -0.2390   -2.0444   -3.3482 H       1  UNL1        0.0334
     25 C          -2.0432   -2.8630   -2.4652 C.3     1  UNL1       -0.0409
     26 C          -2.7051   -1.4917   -2.3160 C.3     1  UNL1       -0.0623
     27 C          -2.5285   -3.5259   -3.7560 C.3     1  UNL1       -0.0623
     28 H           1.0042    1.8801    0.0026 H       1  UNL1        0.0322
     29 H          -0.5455    1.8639   -0.8728 H       1  UNL1        0.0322
     30 H          -0.5286    1.8543    0.9071 H       1  UNL1        0.0322
     31 H          -0.0145   -0.1822   -2.0061 H       1  UNL1        0.1490
     32 H           2.1130   -2.0266   -1.7851 H       1  UNL1        0.0462
     33 H           1.8559   -2.7432   -0.1648 H       1  UNL1        0.0462
     34 H           2.9901   -5.0121    1.2425 H       1  UNL1        0.0637
     35 H           2.2037   -6.3044    3.1854 H       1  UNL1        0.0624
     36 H          -0.0988   -8.7930    0.5979 H       1  UNL1        0.0624
     37 H           0.6847   -7.4983   -1.3445 H       1  UNL1        0.0637
     38 H           0.4570   -4.2521   -3.6697 H       1  UNL1        0.0447
     39 H          -0.4909   -4.8502   -2.2796 H       1  UNL1        0.0447
     40 H          -2.3084   -3.4891   -1.6133 H       1  UNL1        0.0299
     41 H          -2.4399   -0.8656   -3.1680 H       1  UNL1        0.0232
     42 H          -3.7877   -1.6131   -2.2774 H       1  UNL1        0.0232
     43 H          -2.3594   -1.0195   -1.3965 H       1  UNL1        0.0232
     44 H          -2.0569   -4.5028   -3.8623 H       1  UNL1        0.0232
     45 H          -3.6110   -3.6472   -3.7174 H       1  UNL1        0.0232
     46 H          -2.2632   -2.8998   -4.6079 H       1  UNL1        0.0232
@<TRIPOS>BOND
     1     1     2    1
     2     1    28    1
     3     1    29    1
     4     1    30    1
     5     2     3    2
     6     2     4   am
     7     4     5    1
     8     4    31    1
     9     5     6    1
    10     5    23    1
    11     5     7    1
    12     7     8    1
    13     7    32    1
    14     7    33    1
    15     9     8    1
    16     8    22    1
    17     9    10    2
    18     9    11    2
    19     9    12    1
    20    12    21   ar
    21    12    13   ar
    22    13    14   ar
    23    13    34    1
    24    14    15   ar
    25    14    35    1
    26    15    16    1
    27    15    20   ar
    28    16    17    1
    29    16    18    1
    30    16    19    1
    31    20    21   ar
    32    20    36    1
    33    21    37    1
    34    22    23    1
    35    22    38    1
    36    22    39    1
    37    23    24    1
    38    23    25    1
    39    25    26    1
    40    25    27    1
    41    25    40    1
    42    26    41    1
    43    26    42    1
    44    26    43    1
    45    27    44    1
    46    27    45    1
    47    27    46    1
