@<TRIPOS>MOLECULE
ZINC000011161778
 42 43 0 0 0
SMALL
GASTEIGER

@<TRIPOS>ATOM
      1 C          -0.0225    1.8097    0.0120 C.3     1  UNL1        0.0707
      2 S           0.0021   -0.0041    0.0020 S.O2    1  UNL1        0.0291
      3 O           0.8448   -0.4970    1.0346 O.2     1  UNL1       -0.1583
      4 O          -1.3093   -0.5195   -0.1821 O.2     1  UNL1       -0.1583
      5 N           0.7961   -0.3989   -1.3965 N.3     1  UNL1       -0.1784
      6 C           0.0540   -0.5827   -2.6517 C.3     1  UNL1        0.0360
      7 C           0.6512    0.3475   -3.7149 C.3     1  UNL1        0.0292
      8 N           2.1107    0.1752   -3.7232 N.am    1  UNL1       -0.2976
      9 C           2.7570   -0.1453   -4.8617 C.2     1  UNL1        0.2327
     10 O           2.1339   -0.2940   -5.8915 O.2     1  UNL1       -0.2739
     11 C           4.2540   -0.3187   -4.8550 C.3     1  UNL1        0.0860
     12 N           4.7118   -0.6623   -6.2036 N.pl3   1  UNL1       -0.3354
     13 C           6.0708   -0.8735   -6.4471 C.ar    1  UNL1        0.0275
     14 C           6.9890   -0.7637   -5.4105 C.ar    1  UNL1       -0.0403
     15 C           8.3320   -0.9736   -5.6546 C.ar    1  UNL1       -0.0484
     16 C           8.7631   -1.2923   -6.9294 C.ar    1  UNL1        0.0549
     17 C          10.2294   -1.5206   -7.1920 C.3     1  UNL1        0.4174
     18 F          10.5317   -2.8735   -7.0039 F       1  UNL1       -0.1659
     19 F          10.5299   -1.1542   -8.5083 F       1  UNL1       -0.1659
     20 F          10.9877   -0.7460   -6.3076 F       1  UNL1       -0.1659
     21 C           7.8517   -1.4023   -7.9635 C.ar    1  UNL1       -0.0484
     22 C           6.5066   -1.1994   -7.7252 C.ar    1  UNL1       -0.0403
     23 C           2.8528    0.3590   -2.4681 C.3     1  UNL1        0.0292
     24 C           2.2562   -0.5657   -1.4061 C.3     1  UNL1        0.0360
     25 H           1.0001    2.1870    0.0043 H       1  UNL1        0.0479
     26 H          -0.5497    2.1708   -0.8711 H       1  UNL1        0.0479
     27 H          -0.5327    2.1613    0.9088 H       1  UNL1        0.0479
     28 H           0.1421   -1.6182   -2.9804 H       1  UNL1        0.0459
     29 H          -0.9957   -0.3338   -2.4958 H       1  UNL1        0.0459
     30 H           0.2469    0.0910   -4.6941 H       1  UNL1        0.0478
     31 H           0.4063    1.3822   -3.4749 H       1  UNL1        0.0478
     32 H           4.7260    0.6109   -4.5369 H       1  UNL1        0.0557
     33 H           4.5240   -1.1181   -4.1649 H       1  UNL1        0.0557
     34 H           4.0711   -0.7432   -6.9273 H       1  UNL1        0.1466
     35 H           6.6531   -0.5142   -4.4149 H       1  UNL1        0.0636
     36 H           9.0464   -0.8884   -4.8492 H       1  UNL1        0.0624
     37 H           8.1917   -1.6514   -8.9579 H       1  UNL1        0.0624
     38 H           5.7953   -1.2858   -8.5332 H       1  UNL1        0.0636
     39 H           3.9025    0.1101   -2.6240 H       1  UNL1        0.0478
     40 H           2.7647    1.3945   -2.1394 H       1  UNL1        0.0478
     41 H           2.6613   -0.3081   -0.4275 H       1  UNL1        0.0459
     42 H           2.4993   -1.6012   -1.6444 H       1  UNL1        0.0459
@<TRIPOS>BOND
     1     1     2    1
     2     1    25    1
     3     1    26    1
     4     1    27    1
     5     2     3    2
     6     2     4    2
     7     2     5    1
     8     5    24    1
     9     5     6    1
    10     6     7    1
    11     6    28    1
    12     6    29    1
    13     7     8    1
    14     7    30    1
    15     7    31    1
    16     8     9   am
    17     8    23    1
    18     9    10    2
    19     9    11    1
    20    11    12    1
    21    11    32    1
    22    11    33    1
    23    12    13    1
    24    12    34    1
    25    13    22   ar
    26    13    14   ar
    27    14    15   ar
    28    14    35    1
    29    15    16   ar
    30    15    36    1
    31    16    17    1
    32    16    21   ar
    33    17    18    1
    34    17    19    1
    35    17    20    1
    36    21    22   ar
    37    21    37    1
    38    22    38    1
    39    23    24    1
    40    23    39    1
    41    23    40    1
    42    24    41    1
    43    24    42    1
