@<TRIPOS>MOLECULE
ZINC000072354602
 42 44 0 0 0
SMALL
GASTEIGER

@<TRIPOS>ATOM
      1 C          -0.0184    1.5028    0.0103 C.3     1  UNL1        0.0124
      2 C           0.0021   -0.0041    0.0020 C.2     1  UNL1        0.2130
      3 O           1.0605   -0.5961   -0.0113 O.2     1  UNL1       -0.2759
      4 N          -1.1558   -0.6938    0.0094 N.am    1  UNL1       -0.2931
      5 C          -2.5070   -0.1042    0.0190 C.3     1  UNL1        0.0154
      6 C          -3.4210   -1.1974   -0.5886 C.3     1  UNL1       -0.0351
      7 C          -2.7877   -2.4901   -0.0096 C.3     1  UNL1       -0.0273
      8 C          -1.2807   -2.1587    0.0027 C.3     1  UNL1        0.0689
      9 H          -0.8029   -2.5723   -0.8854 H       1  UNL1        0.0566
     10 C          -0.6404   -2.7295    1.2418 C.ar    1  UNL1        0.0744
     11 N          -0.8311   -2.1590    2.4180 N.ar    1  UNL1       -0.2172
     12 C          -0.2721   -2.6548    3.5128 C.ar    1  UNL1        0.2128
     13 N          -0.4970   -2.0280    4.7255 N.pl3   1  UNL1       -0.3275
     14 N           0.4957   -3.7343    3.4786 N.ar    1  UNL1       -0.2225
     15 C           0.7337   -4.3612    2.3399 C.ar    1  UNL1        0.0407
     16 C           0.1587   -3.8732    1.1640 C.ar    1  UNL1        0.0235
     17 C           0.3989   -4.5462   -0.1363 C.ar    1  UNL1       -0.0146
     18 C          -0.6735   -4.8677   -0.9660 C.ar    1  UNL1       -0.0534
     19 C          -0.4442   -5.4933   -2.1747 C.ar    1  UNL1       -0.0495
     20 C           0.8472   -5.8015   -2.5628 C.ar    1  UNL1        0.0548
     21 C           1.0913   -6.4845   -3.8838 C.3     1  UNL1        0.4174
     22 F           1.2704   -5.5202   -4.8814 F       1  UNL1       -0.1659
     23 F           2.2386   -7.2798   -3.7926 F       1  UNL1       -0.1659
     24 F          -0.0086   -7.2877   -4.2037 F       1  UNL1       -0.1659
     25 C           1.9155   -5.4846   -1.7432 C.ar    1  UNL1       -0.0495
     26 C           1.6982   -4.8538   -0.5350 C.ar    1  UNL1       -0.0534
     27 H           1.0042    1.8801    0.0026 H       1  UNL1        0.0323
     28 H          -0.5455    1.8639   -0.8728 H       1  UNL1        0.0323
     29 H          -0.5286    1.8543    0.9071 H       1  UNL1        0.0323
     30 H          -2.8145    0.1230    1.0397 H       1  UNL1        0.0465
     31 H          -2.5325    0.7960   -0.5951 H       1  UNL1        0.0465
     32 H          -4.4498   -1.0800   -0.2483 H       1  UNL1        0.0281
     33 H          -3.3680   -1.1902   -1.6773 H       1  UNL1        0.0281
     34 H          -3.1529   -2.6797    0.9998 H       1  UNL1        0.0287
     35 H          -2.9876   -3.3420   -0.6595 H       1  UNL1        0.0287
     36 H          -1.0571   -1.2371    4.7661 H       1  UNL1        0.1452
     37 H          -0.0946   -2.3794    5.5351 H       1  UNL1        0.1452
     38 H           1.3605   -5.2405    2.3193 H       1  UNL1        0.0837
     39 H          -1.6823   -4.6282   -0.6636 H       1  UNL1        0.0624
     40 H          -1.2746   -5.7430   -2.8185 H       1  UNL1        0.0623
     41 H           2.9217   -5.7275   -2.0512 H       1  UNL1        0.0623
     42 H           2.5330   -4.6069    0.1042 H       1  UNL1        0.0624
@<TRIPOS>BOND
     1     1     2    1
     2     1    27    1
     3     1    28    1
     4     1    29    1
     5     2     3    2
     6     2     4   am
     7     4     8    1
     8     4     5    1
     9     5     6    1
    10     5    30    1
    11     5    31    1
    12     6     7    1
    13     6    32    1
    14     6    33    1
    15     7     8    1
    16     7    34    1
    17     7    35    1
    18     8     9    1
    19     8    10    1
    20    10    16   ar
    21    10    11   ar
    22    11    12   ar
    23    12    13    1
    24    12    14   ar
    25    13    36    1
    26    13    37    1
    27    14    15   ar
    28    15    16   ar
    29    15    38    1
    30    16    17    1
    31    17    26   ar
    32    17    18   ar
    33    18    19   ar
    34    18    39    1
    35    19    20   ar
    36    19    40    1
    37    20    21    1
    38    20    25   ar
    39    21    22    1
    40    21    23    1
    41    21    24    1
    42    25    26   ar
    43    25    41    1
    44    26    42    1
