@<TRIPOS>MOLECULE
ZINC000070640072
 34 35 0 0 0
SMALL
GASTEIGER

@<TRIPOS>ATOM
      1 O           0.0021   -0.0041    0.0020 O.2     1  UNL1       -0.1580
      2 S          -0.0172    1.4168    0.0098 S.O2    1  UNL1        0.0323
      3 O           1.1903    2.1659    0.0023 O.2     1  UNL1       -0.1580
      4 N          -0.7587    1.8230   -1.4141 N.3     1  UNL1       -0.1915
      5 C          -0.9388    3.2326   -1.7701 C.3     1  UNL1        0.0472
      6 C          -1.2919    3.3426   -3.2547 C.3     1  UNL1        0.0942
      7 H          -0.5290    2.8386   -3.8480 H       1  UNL1        0.0657
      8 O          -2.5607    2.7284   -3.4892 O.3     1  UNL1       -0.3859
      9 C          -1.3566    4.7956   -3.6493 C.ar    1  UNL1       -0.0179
     10 C          -2.4826    5.5420   -3.3561 C.ar    1  UNL1       -0.0556
     11 C          -2.5419    6.8748   -3.7181 C.ar    1  UNL1       -0.0498
     12 C          -1.4751    7.4613   -4.3729 C.ar    1  UNL1        0.0548
     13 C          -1.5400    8.9141   -4.7680 C.3     1  UNL1        0.4174
     14 F          -1.0340    9.7029   -3.7292 F       1  UNL1       -0.1659
     15 F          -0.7768    9.1180   -5.9226 F       1  UNL1       -0.1659
     16 F          -2.8694    9.2703   -5.0189 F       1  UNL1       -0.1659
     17 C          -0.3486    6.7153   -4.6649 C.ar    1  UNL1       -0.0498
     18 C          -0.2877    5.3835   -4.2995 C.ar    1  UNL1       -0.0556
     19 C          -1.1394    2.0311    1.2958 C.3     1  UNL1        0.0929
     20 C          -1.8758    0.9934    2.1454 C.3     1  UNL1       -0.0275
     21 C          -0.7326    1.8081    2.7538 C.3     1  UNL1       -0.0275
     22 H          -1.0737    1.1276   -2.0125 H       1  UNL1        0.1477
     23 H          -1.7448    3.6582   -1.1723 H       1  UNL1        0.0470
     24 H          -0.0151    3.7775   -1.5750 H       1  UNL1        0.0470
     25 H          -3.2884    3.1269   -2.9925 H       1  UNL1        0.2103
     26 H          -3.3161    5.0837   -2.8446 H       1  UNL1        0.0621
     27 H          -3.4219    7.4577   -3.4897 H       1  UNL1        0.0623
     28 H           0.4851    7.1736   -5.1761 H       1  UNL1        0.0623
     29 H           0.5924    4.8006   -4.5276 H       1  UNL1        0.0621
     30 H          -1.6688    2.9533    1.0564 H       1  UNL1        0.0551
     31 H          -2.8901    1.2328    2.4650 H       1  UNL1        0.0285
     32 H          -1.6860   -0.0584    1.9316 H       1  UNL1        0.0285
     33 H           0.2093    1.2923    2.9403 H       1  UNL1        0.0285
     34 H          -0.9947    2.5835    3.4737 H       1  UNL1        0.0285
@<TRIPOS>BOND
     1     1     2    2
     2     2     3    2
     3     2     4    1
     4     2    19    1
     5     4     5    1
     6     4    22    1
     7     5     6    1
     8     5    23    1
     9     5    24    1
    10     6     7    1
    11     6     8    1
    12     6     9    1
    13     8    25    1
    14     9    18   ar
    15     9    10   ar
    16    10    11   ar
    17    10    26    1
    18    11    12   ar
    19    11    27    1
    20    12    13    1
    21    12    17   ar
    22    13    14    1
    23    13    15    1
    24    13    16    1
    25    17    18   ar
    26    17    28    1
    27    18    29    1
    28    19    21    1
    29    19    20    1
    30    19    30    1
    31    20    21    1
    32    20    31    1
    33    20    32    1
    34    21    33    1
    35    21    34    1
