@<TRIPOS>MOLECULE
ZINC000071144686
 39 40 0 0 0
SMALL
GASTEIGER

@<TRIPOS>ATOM
      1 C          -0.0178    1.4648    0.0101 C.3     1  UNL1       -0.0449
      2 N           0.0021   -0.0041    0.0020 N.4     1  UNL1        0.2250
      3 H           0.4901   -0.3383    0.8195 H       1  UNL1        0.2011
      4 H          -0.9445   -0.3533    0.0092 H       1  UNL1        0.2011
      5 C           0.6897   -0.4778   -1.2066 C.3     1  UNL1       -0.0298
      6 C           0.7104   -2.0077   -1.2150 C.3     1  UNL1        0.0147
      7 H           1.1442   -2.3911   -0.2915 H       1  UNL1        0.0366
      8 C          -0.7180   -2.5749   -1.4275 C.3     1  UNL1       -0.0297
      9 C          -0.4137   -3.9517   -2.0690 C.3     1  UNL1        0.0210
     10 N           0.7498   -3.7123   -2.9422 N.3     1  UNL1       -0.1761
     11 S           1.1661   -4.6173   -4.2650 S.O2    1  UNL1        0.0609
     12 O           2.5590   -4.4192   -4.4645 O.2     1  UNL1       -0.1528
     13 O           0.5828   -5.8989   -4.0741 O.2     1  UNL1       -0.1528
     14 C           0.3576   -3.9054   -5.6594 C.ar    1  UNL1        0.1055
     15 C          -0.9084   -4.3309   -6.0160 C.ar    1  UNL1       -0.0348
     16 C          -1.5427   -3.7724   -7.1099 C.ar    1  UNL1       -0.0483
     17 C          -0.9112   -2.7881   -7.8469 C.ar    1  UNL1        0.0549
     18 C          -1.6025   -2.1796   -9.0398 C.3     1  UNL1        0.4174
     19 F          -2.3469   -1.0681   -8.6305 F       1  UNL1       -0.1659
     20 F          -0.6460   -1.7800   -9.9794 F       1  UNL1       -0.1659
     21 F          -2.4562   -3.1258   -9.6169 F       1  UNL1       -0.1659
     22 C           0.3542   -2.3616   -7.4895 C.ar    1  UNL1       -0.0483
     23 C           0.9870   -2.9174   -6.3933 C.ar    1  UNL1       -0.0348
     24 C           1.4829   -2.5365   -2.4419 C.3     1  UNL1        0.0282
     25 H           1.0047    1.8421    0.0024 H       1  UNL1        0.0777
     26 H          -0.5450    1.8259   -0.8730 H       1  UNL1        0.0777
     27 H          -0.5280    1.8163    0.9069 H       1  UNL1        0.0777
     28 H           0.1625   -0.1167   -2.0897 H       1  UNL1        0.0817
     29 H           1.7123   -0.1005   -1.2143 H       1  UNL1        0.0817
     30 H          -1.2369   -2.6932   -0.4763 H       1  UNL1        0.0283
     31 H          -1.2913   -1.9450   -2.1078 H       1  UNL1        0.0283
     32 H          -0.1662   -4.6825   -1.2991 H       1  UNL1        0.0444
     33 H          -1.2657   -4.2928   -2.6572 H       1  UNL1        0.0444
     34 H          -1.4018   -5.0999   -5.4402 H       1  UNL1        0.0637
     35 H          -2.5315   -4.1054   -7.3889 H       1  UNL1        0.0624
     36 H           0.8475   -1.5923   -8.0651 H       1  UNL1        0.0624
     37 H           1.9756   -2.5842   -6.1141 H       1  UNL1        0.0637
     38 H           1.5205   -1.7673   -3.2132 H       1  UNL1        0.0448
     39 H           2.4937   -2.8250   -2.1536 H       1  UNL1        0.0448
@<TRIPOS>UNITY_ATOM_ATTR
2 1
charge 1
@<TRIPOS>BOND
     1     1     2    1
     2     1    25    1
     3     1    26    1
     4     1    27    1
     5     2     3    1
     6     2     4    1
     7     2     5    1
     8     5     6    1
     9     5    28    1
    10     5    29    1
    11     6     7    1
    12     6    24    1
    13     6     8    1
    14     8     9    1
    15     8    30    1
    16     8    31    1
    17     9    10    1
    18     9    32    1
    19     9    33    1
    20    11    10    1
    21    10    24    1
    22    11    12    2
    23    11    13    2
    24    11    14    1
    25    14    23   ar
    26    14    15   ar
    27    15    16   ar
    28    15    34    1
    29    16    17   ar
    30    16    35    1
    31    17    18    1
    32    17    22   ar
    33    18    19    1
    34    18    20    1
    35    18    21    1
    36    22    23   ar
    37    22    36    1
    38    23    37    1
    39    24    38    1
    40    24    39    1
