@<TRIPOS>MOLECULE
ZINC000012850923
 57 60 0 0 0
SMALL
GASTEIGER

@<TRIPOS>ATOM
      1 C          -1.7838   -1.5231    5.5453 C.3     1  UNL1       -0.0171
      2 C          -1.6172   -0.0333    5.6994 C.ar    1  UNL1        0.1071
      3 N          -2.0623    0.7043    6.6752 N.ar    1  UNL1       -0.0813
      4 O          -1.7714    1.8680    6.5223 O.2     1  UNL1       -0.3576
      5 C          -1.0756    2.0575    5.3924 C.ar    1  UNL1        0.1607
      6 C          -0.5422    3.3666    4.8700 C.3     1  UNL1       -0.0017
      7 C          -0.9412    0.8392    4.8159 C.ar    1  UNL1        0.1696
      8 S          -0.1228    0.4365    3.3083 S.O2    1  UNL1        0.0666
      9 O          -0.7835   -0.7081    2.7863 O.2     1  UNL1       -0.1527
     10 O           0.0107    1.6534    2.5868 O.2     1  UNL1       -0.1527
     11 N           1.4124   -0.0469    3.6980 N.3     1  UNL1       -0.1646
     12 C           1.8277   -1.4291    3.9986 C.3     1  UNL1        0.0214
     13 C           3.3436   -1.4656    3.6815 C.3     1  UNL1       -0.0366
     14 C           3.7954   -0.0599    4.1580 C.3     1  UNL1       -0.0260
     15 C           2.5883    0.8303    3.7951 C.3     1  UNL1        0.1080
     16 H           2.4270    1.5728    4.5766 H       1  UNL1        0.0576
     17 C           2.8368    1.5188    2.4778 C.2     1  UNL1        0.2346
     18 O           2.4297    1.0234    1.4484 O.2     1  UNL1       -0.2738
     19 N           3.5116    2.6849    2.4437 N.am    1  UNL1       -0.2972
     20 C           4.0161    3.2937    3.6825 C.3     1  UNL1        0.0305
     21 C           5.5244    3.5291    3.5340 C.3     1  UNL1        0.0293
     22 N           5.7692    4.2144    2.2572 N.pl3   1  UNL1       -0.3122
     23 C           6.4660    5.4168    2.2219 C.ar    1  UNL1        0.1213
     24 C           7.1229    5.8665    3.3625 C.ar    1  UNL1       -0.0212
     25 C           7.8128    7.0645    3.3132 C.ar    1  UNL1       -0.0454
     26 C           7.8226    7.7750    2.1204 C.ar    1  UNL1        0.0730
     27 C           8.5615    9.0845    2.0205 C.3     1  UNL1        0.4188
     28 F           9.8793    8.8467    1.6154 F       1  UNL1       -0.1658
     29 F           7.9272    9.9077    1.0839 F       1  UNL1       -0.1658
     30 F           8.5642    9.7150    3.2694 F       1  UNL1       -0.1658
     31 C           7.1487    7.2693    1.0266 C.ar    1  UNL1        0.0413
     32 N           6.5030    6.1211    1.1011 N.ar    1  UNL1       -0.2398
     33 C           5.2647    3.6057    1.0184 C.3     1  UNL1        0.0293
     34 C           3.7613    3.3675    1.1663 C.3     1  UNL1        0.0305
     35 H          -0.9057   -2.0302    5.9451 H       1  UNL1        0.0294
     36 H          -2.6703   -1.8479    6.0900 H       1  UNL1        0.0294
     37 H          -1.8959   -1.7689    4.4893 H       1  UNL1        0.0294
     38 H          -0.8081    4.1681    5.5591 H       1  UNL1        0.0309
     39 H           0.5427    3.3078    4.7824 H       1  UNL1        0.0309
     40 H          -0.9753    3.5706    3.8908 H       1  UNL1        0.0309
     41 H           1.6545   -1.6570    5.0503 H       1  UNL1        0.0444
     42 H           1.2902   -2.1333    3.3635 H       1  UNL1        0.0444
     43 H           3.8429   -2.2501    4.2502 H       1  UNL1        0.0279
     44 H           3.5162   -1.5900    2.6125 H       1  UNL1        0.0279
     45 H           3.9727   -0.0558    5.2335 H       1  UNL1        0.0286
     46 H           4.6856    0.2626    3.6181 H       1  UNL1        0.0286
     47 H           3.5126    4.2451    3.8540 H       1  UNL1        0.0480
     48 H           3.8314    2.6228    4.5214 H       1  UNL1        0.0480
     49 H           5.8805    4.1495    4.3564 H       1  UNL1        0.0480
     50 H           6.0464    2.5722    3.5416 H       1  UNL1        0.0480
     51 H           7.0943    5.2884    4.2743 H       1  UNL1        0.0652
     52 H           8.3319    7.4390    4.1831 H       1  UNL1        0.0625
     53 H           7.1537    7.8187    0.0968 H       1  UNL1        0.0836
     54 H           5.4494    4.2766    0.1795 H       1  UNL1        0.0480
     55 H           5.7683    2.6543    0.8468 H       1  UNL1        0.0480
     56 H           3.4065    2.7471    0.3433 H       1  UNL1        0.0480
     57 H           3.2371    4.3231    1.1597 H       1  UNL1        0.0480
@<TRIPOS>BOND
     1     1     2    1
     2     1    35    1
     3     1    36    1
     4     1    37    1
     5     2     7   ar
     6     2     3   ar
     7     3     4   ar
     8     4     5   ar
     9     5     6    1
    10     5     7   ar
    11     6    38    1
    12     6    39    1
    13     6    40    1
    14     7     8    1
    15     8     9    2
    16     8    10    2
    17     8    11    1
    18    11    15    1
    19    11    12    1
    20    12    13    1
    21    12    41    1
    22    12    42    1
    23    13    14    1
    24    13    43    1
    25    13    44    1
    26    14    15    1
    27    14    45    1
    28    14    46    1
    29    15    16    1
    30    15    17    1
    31    17    18    2
    32    17    19   am
    33    19    34    1
    34    19    20    1
    35    20    21    1
    36    20    47    1
    37    20    48    1
    38    21    22    1
    39    21    49    1
    40    21    50    1
    41    22    23    1
    42    22    33    1
    43    23    32   ar
    44    23    24   ar
    45    24    25   ar
    46    24    51    1
    47    25    26   ar
    48    25    52    1
    49    26    27    1
    50    26    31   ar
    51    27    28    1
    52    27    29    1
    53    27    30    1
    54    31    32   ar
    55    31    53    1
    56    33    34    1
    57    33    54    1
    58    33    55    1
    59    34    56    1
    60    34    57    1
