@<TRIPOS>MOLECULE
ZINC000065625727
 62 63 0 0 0
SMALL
GASTEIGER

@<TRIPOS>ATOM
      1 C          -0.0187    1.5258    0.0104 C.3     1  UNL1       -0.0507
      2 C           0.0021   -0.0041    0.0020 C.3     1  UNL1        0.0177
      3 N          -1.3723   -0.5112    0.0124 N.3     1  UNL1       -0.1771
      4 C          -2.1099   -0.6542   -1.2453 C.3     1  UNL1        0.0177
      5 C          -1.7727   -2.0031   -1.8836 C.3     1  UNL1       -0.0507
      6 S          -2.0922   -0.9227    1.4458 S.O2    1  UNL1        0.0608
      7 O          -3.1196   -1.8512    1.1269 O.2     1  UNL1       -0.1528
      8 O          -1.0393   -1.2108    2.3555 O.2     1  UNL1       -0.1528
      9 C          -2.8978    0.5199    2.0580 C.ar    1  UNL1        0.1055
     10 C          -2.2156    1.3954    2.8820 C.ar    1  UNL1       -0.0351
     11 C          -2.8476    2.5271    3.3622 C.ar    1  UNL1       -0.0567
     12 C          -4.1616    2.7836    3.0181 C.ar    1  UNL1       -0.0468
     13 C          -4.8508    4.0171    3.5421 C.3     1  UNL1       -0.0193
     14 C          -4.6371    5.1747    2.5647 C.3     1  UNL1        0.0313
     15 C          -5.3263    6.4082    3.0886 C.2     1  UNL1        0.2553
     16 O          -5.9290    6.3657    4.1402 O.2     1  UNL1       -0.2723
     17 N          -5.2728    7.5587    2.3886 N.am    1  UNL1       -0.0490
     18 S          -6.0301    8.9142    2.9643 S.O2    1  UNL1        0.1338
     19 O          -7.4241    8.6404    2.9295 O.2     1  UNL1       -0.1362
     20 O          -5.3405    9.2862    4.1498 O.2     1  UNL1       -0.1362
     21 N          -5.7643   10.1270    1.8686 N.3     1  UNL1       -0.1622
     22 C          -4.5847   10.9946    1.9929 C.3     1  UNL1        0.0218
     23 C          -3.3326   10.1767    1.7031 C.3     1  UNL1       -0.0385
     24 C          -3.2600    9.8814    0.1955 C.3     1  UNL1       -0.0518
     25 C          -4.2226    8.7498   -0.1467 C.3     1  UNL1       -0.0530
     26 C          -5.3654    9.2591   -1.0440 C.3     1  UNL1       -0.0518
     27 C          -5.8874   10.5920   -0.5073 C.3     1  UNL1       -0.0385
     28 C          -6.6918   10.3408    0.7704 C.3     1  UNL1        0.0218
     29 C          -4.8434    1.9088    2.1930 C.ar    1  UNL1       -0.0567
     30 C          -4.2102    0.7790    1.7096 C.ar    1  UNL1       -0.0351
     31 H           1.0039    1.9031    0.0027 H       1  UNL1        0.0243
     32 H          -0.5459    1.8868   -0.8726 H       1  UNL1        0.0243
     33 H          -0.5289    1.8773    0.9072 H       1  UNL1        0.0243
     34 H           0.5123   -0.3556   -0.8948 H       1  UNL1        0.0441
     35 H           0.5293   -0.3651    0.8851 H       1  UNL1        0.0441
     36 H          -3.1804   -0.6037   -1.0465 H       1  UNL1        0.0441
     37 H          -1.8283    0.1500   -1.9251 H       1  UNL1        0.0441
     38 H          -0.7022   -2.0536   -2.0825 H       1  UNL1        0.0243
     39 H          -2.0544   -2.8073   -1.2038 H       1  UNL1        0.0243
     40 H          -2.3215   -2.1096   -2.8194 H       1  UNL1        0.0243
     41 H          -1.1890    1.1950    3.1509 H       1  UNL1        0.0637
     42 H          -2.3149    3.2108    4.0066 H       1  UNL1        0.0621
     43 H          -5.9180    3.8210    3.6452 H       1  UNL1        0.0318
     44 H          -4.4342    4.2808    4.5142 H       1  UNL1        0.0318
     45 H          -3.5699    5.3709    2.4615 H       1  UNL1        0.0363
     46 H          -5.0537    4.9110    1.5925 H       1  UNL1        0.0363
     47 H          -4.6581   11.8143    1.2782 H       1  UNL1        0.0444
     48 H          -4.5321   11.3956    3.0051 H       1  UNL1        0.0444
     49 H          -2.4507   10.7408    2.0067 H       1  UNL1        0.0278
     50 H          -3.3743    9.2385    2.2565 H       1  UNL1        0.0278
     51 H          -3.5365   10.7752   -0.3637 H       1  UNL1        0.0266
     52 H          -2.2444    9.5869   -0.0687 H       1  UNL1        0.0266
     53 H          -3.6796    7.9623   -0.6693 H       1  UNL1        0.0265
     54 H          -4.6425    8.3449    0.7741 H       1  UNL1        0.0265
     55 H          -4.9947    9.3974   -2.0597 H       1  UNL1        0.0266
     56 H          -6.1745    8.5288   -1.0504 H       1  UNL1        0.0266
     57 H          -5.0465   11.2491   -0.2857 H       1  UNL1        0.0278
     58 H          -6.5271   11.0598   -1.2556 H       1  UNL1        0.0278
     59 H          -7.3197    9.4593    0.6414 H       1  UNL1        0.0444
     60 H          -7.3158   11.2078    0.9876 H       1  UNL1        0.0444
     61 H          -5.8699    2.1094    1.9238 H       1  UNL1        0.0621
     62 H          -4.7428    0.0956    1.0650 H       1  UNL1        0.0637
@<TRIPOS>BOND
     1     1     2    1
     2     1    31    1
     3     1    32    1
     4     1    33    1
     5     2     3    1
     6     2    34    1
     7     2    35    1
     8     3     4    1
     9     6     3    1
    10     4     5    1
    11     4    36    1
    12     4    37    1
    13     5    38    1
    14     5    39    1
    15     5    40    1
    16     6     7    2
    17     6     8    2
    18     6     9    1
    19     9    30   ar
    20     9    10   ar
    21    10    11   ar
    22    10    41    1
    23    11    12   ar
    24    11    42    1
    25    12    13    1
    26    12    29   ar
    27    13    14    1
    28    13    43    1
    29    13    44    1
    30    14    15    1
    31    14    45    1
    32    14    46    1
    33    15    16    2
    34    15    17   am
    35    18    17    1
    36    18    19    2
    37    18    20    2
    38    18    21    1
    39    21    28    1
    40    21    22    1
    41    22    23    1
    42    22    47    1
    43    22    48    1
    44    23    24    1
    45    23    49    1
    46    23    50    1
    47    24    25    1
    48    24    51    1
    49    24    52    1
    50    25    26    1
    51    25    53    1
    52    25    54    1
    53    26    27    1
    54    26    55    1
    55    26    56    1
    56    27    28    1
    57    27    57    1
    58    27    58    1
    59    28    59    1
    60    28    60    1
    61    29    30   ar
    62    29    61    1
    63    30    62    1
