@<TRIPOS>MOLECULE
ZINC000028207877
 45 46 0 0 0
SMALL
GASTEIGER

@<TRIPOS>ATOM
      1 C          -0.0178    1.4608    0.0101 C.3     1  UNL1        0.0086
      2 N           0.0021   -0.0041    0.0020 N.3     1  UNL1       -0.1827
      3 C           0.0241   -0.7433    1.2666 C.3     1  UNL1        0.0086
      4 S          -0.0004   -0.8243   -1.4366 S.O2    1  UNL1        0.0604
      5 O          -0.5247   -2.1160   -1.1611 O.2     1  UNL1       -0.1529
      6 O          -0.5660    0.0551   -2.3989 O.2     1  UNL1       -0.1529
      7 C           1.6816   -1.0597   -1.9056 C.ar    1  UNL1        0.1071
      8 C           2.3222   -0.1087   -2.6777 C.ar    1  UNL1       -0.0318
      9 C           3.6415   -0.2902   -3.0468 C.ar    1  UNL1       -0.0166
     10 C           4.3234   -1.4277   -2.6422 C.ar    1  UNL1        0.1395
     11 O           5.6213   -1.6082   -3.0037 O.3     1  UNL1       -0.4813
     12 C           6.2207   -0.5854   -3.8014 C.3     1  UNL1        0.1652
     13 C           7.6503   -0.9557   -4.1018 C.2     1  UNL1        0.2507
     14 O           8.1105   -1.9934   -3.6747 O.2     1  UNL1       -0.2721
     15 N           8.4175   -0.1338   -4.8450 N.am    1  UNL1       -0.3100
     16 C           9.8072   -0.4938   -5.1370 C.3     1  UNL1        0.0380
     17 C          10.4491    0.6013   -5.9911 C.3     1  UNL1        0.0742
     18 H          10.4207    1.5557   -5.4654 H       1  UNL1        0.0611
     19 C          11.9104    0.2233   -6.3410 C.3     1  UNL1       -0.0231
     20 C          12.1228    1.0416   -7.6438 C.3     1  UNL1       -0.0271
     21 C          10.7220    0.9963   -8.2912 C.3     1  UNL1        0.0482
     22 O           9.7742    0.7079   -7.2547 O.3     1  UNL1       -0.3750
     23 C           3.6783   -2.3819   -1.8667 C.ar    1  UNL1        0.0844
     24 CL          4.5282   -3.8076   -1.3578 Cl      1  UNL1       -0.0797
     25 C           2.3603   -2.1928   -1.4959 C.ar    1  UNL1       -0.0134
     26 H           1.0048    1.8381    0.0023 H       1  UNL1        0.0408
     27 H          -0.5450    1.8219   -0.8730 H       1  UNL1        0.0408
     28 H          -0.5280    1.8123    0.9069 H       1  UNL1        0.0408
     29 H          -0.9979   -0.9406    1.5900 H       1  UNL1        0.0408
     30 H           0.5496   -1.6879    1.1262 H       1  UNL1        0.0408
     31 H           0.5371   -0.1514    2.0246 H       1  UNL1        0.0408
     32 H           1.7908    0.7771   -2.9931 H       1  UNL1        0.0638
     33 H           4.1409    0.4532   -3.6503 H       1  UNL1        0.0655
     34 H           5.6682   -0.4823   -4.7353 H       1  UNL1        0.0795
     35 H           6.1966    0.3596   -3.2588 H       1  UNL1        0.0795
     36 H           8.0495    0.6961   -5.1866 H       1  UNL1        0.1489
     37 H          10.3597   -0.5969   -4.2031 H       1  UNL1        0.0487
     38 H           9.8314   -1.4388   -5.6796 H       1  UNL1        0.0487
     39 H          12.5976    0.5452   -5.5585 H       1  UNL1        0.0291
     40 H          12.0053   -0.8462   -6.5290 H       1  UNL1        0.0291
     41 H          12.4113    2.0675   -7.4148 H       1  UNL1        0.0288
     42 H          12.8626    0.5636   -8.2859 H       1  UNL1        0.0288
     43 H          10.4919    1.9613   -8.7426 H       1  UNL1        0.0560
     44 H          10.6906    0.2147   -9.0503 H       1  UNL1        0.0560
     45 H           1.8577   -2.9342   -0.8925 H       1  UNL1        0.0653
@<TRIPOS>BOND
     1     1     2    1
     2     1    26    1
     3     1    27    1
     4     1    28    1
     5     2     3    1
     6     4     2    1
     7     3    29    1
     8     3    30    1
     9     3    31    1
    10     4     5    2
    11     4     6    2
    12     4     7    1
    13     7    25   ar
    14     7     8   ar
    15     8     9   ar
    16     8    32    1
    17     9    10   ar
    18     9    33    1
    19    10    11    1
    20    10    23   ar
    21    11    12    1
    22    12    13    1
    23    12    34    1
    24    12    35    1
    25    13    14    2
    26    13    15   am
    27    15    16    1
    28    15    36    1
    29    16    17    1
    30    16    37    1
    31    16    38    1
    32    17    18    1
    33    17    22    1
    34    17    19    1
    35    19    20    1
    36    19    39    1
    37    19    40    1
    38    20    21    1
    39    20    41    1
    40    20    42    1
    41    21    22    1
    42    21    43    1
    43    21    44    1
    44    23    24    1
    45    23    25   ar
    46    25    45    1
