@<TRIPOS>MOLECULE
ZINC000409391480
 60 61 0 0 0
SMALL
GASTEIGER

@<TRIPOS>ATOM
      1 C          -0.0187    1.5258    0.0104 C.3     1  UNL1       -0.0652
      2 C           0.0021   -0.0041    0.0020 C.3     1  UNL1       -0.0542
      3 C           0.7421   -0.5109    1.2415 C.3     1  UNL1       -0.0350
      4 C           0.7628   -2.0407    1.2331 C.3     1  UNL1        0.0203
      5 H           1.1931   -2.3931    0.2957 H       1  UNL1        0.0495
      6 C           1.6083   -2.5458    2.4040 C.3     1  UNL1       -0.0466
      7 N          -0.6052   -2.5484    1.3639 N.am    1  UNL1       -0.3116
      8 C          -0.9177   -3.7721    0.8935 C.2     1  UNL1        0.2290
      9 O          -0.0664   -4.4531    0.3620 O.2     1  UNL1       -0.2743
     10 C          -2.3249   -4.2944    1.0279 C.3     1  UNL1        0.0971
     11 N          -2.4060   -5.6354    0.4437 N.3     1  UNL1       -0.1635
     12 C          -2.0445   -6.8069    1.2457 C.3     1  UNL1        0.0460
     13 C          -3.2351   -7.2461    2.0584 C.ar    1  UNL1       -0.0317
     14 C          -3.4393   -6.7251    3.3225 C.ar    1  UNL1       -0.0573
     15 C          -4.5314   -7.1281    4.0680 C.ar    1  UNL1       -0.0615
     16 C          -5.4196   -8.0516    3.5493 C.ar    1  UNL1       -0.0617
     17 C          -5.2160   -8.5719    2.2849 C.ar    1  UNL1       -0.0615
     18 C          -4.1262   -8.1657    1.5377 C.ar    1  UNL1       -0.0573
     19 S          -2.9064   -5.8270   -1.1232 S.O2    1  UNL1        0.0617
     20 O          -3.4050   -7.1537   -1.2257 O.2     1  UNL1       -0.1528
     21 O          -3.6812   -4.6788   -1.4403 O.2     1  UNL1       -0.1528
     22 C          -1.4705   -5.7551   -2.1418 C.ar    1  UNL1        0.1092
     23 C          -1.0377   -4.5401   -2.6385 C.ar    1  UNL1       -0.0317
     24 C           0.0885   -4.4784   -3.4387 C.ar    1  UNL1       -0.0145
     25 C           0.7857   -5.6359   -3.7437 C.ar    1  UNL1        0.1616
     26 O           1.8936   -5.5769   -4.5301 O.3     1  UNL1       -0.4915
     27 C           2.2822   -4.2874   -5.0077 C.3     1  UNL1        0.0790
     28 C           0.3501   -6.8595   -3.2430 C.ar    1  UNL1        0.1633
     29 O           1.0314   -7.9985   -3.5391 O.3     1  UNL1       -0.4914
     30 C           0.5266   -9.2177   -2.9906 C.3     1  UNL1        0.0790
     31 C          -0.7758   -6.9136   -2.4377 C.ar    1  UNL1        0.0101
     32 H           1.0039    1.9031    0.0027 H       1  UNL1        0.0230
     33 H          -0.5459    1.8868   -0.8726 H       1  UNL1        0.0230
     34 H          -0.5289    1.8773    0.9072 H       1  UNL1        0.0230
     35 H          -1.0205   -0.3814    0.0098 H       1  UNL1        0.0263
     36 H           0.5123   -0.3556   -0.8948 H       1  UNL1        0.0263
     37 H           1.7647   -0.1336    1.2338 H       1  UNL1        0.0283
     38 H           0.2319   -0.1594    2.1383 H       1  UNL1        0.0283
     39 H           1.6231   -3.6357    2.3980 H       1  UNL1        0.0247
     40 H           2.6261   -2.1681    2.3068 H       1  UNL1        0.0247
     41 H           1.1780   -2.1934    3.3415 H       1  UNL1        0.0247
     42 H          -1.2861   -2.0038    1.7889 H       1  UNL1        0.1490
     43 H          -2.5961   -4.3405    2.0827 H       1  UNL1        0.0539
     44 H          -3.0112   -3.6282    0.5052 H       1  UNL1        0.0539
     45 H          -1.7359   -7.6177    0.5859 H       1  UNL1        0.0493
     46 H          -1.2230   -6.5499    1.9144 H       1  UNL1        0.0493
     47 H          -2.7454   -6.0036    3.7278 H       1  UNL1        0.0621
     48 H          -4.6906   -6.7216    5.0559 H       1  UNL1        0.0618
     49 H          -6.2725   -8.3669    4.1320 H       1  UNL1        0.0618
     50 H          -5.9097   -9.2937    1.8797 H       1  UNL1        0.0618
     51 H          -3.9670   -8.5722    0.5498 H       1  UNL1        0.0621
     52 H          -1.5804   -3.6370   -2.4015 H       1  UNL1        0.0638
     53 H           0.4242   -3.5279   -3.8262 H       1  UNL1        0.0656
     54 H           3.1782   -4.3820   -5.6212 H       1  UNL1        0.0660
     55 H           1.4756   -3.8632   -5.6057 H       1  UNL1        0.0660
     56 H           2.4892   -3.6334   -4.1607 H       1  UNL1        0.0660
     57 H           1.1611  -10.0470   -3.3033 H       1  UNL1        0.0660
     58 H           0.5236   -9.1528   -1.9026 H       1  UNL1        0.0660
     59 H          -0.4899   -9.3833   -3.3476 H       1  UNL1        0.0660
     60 H          -1.1159   -7.8616   -2.0480 H       1  UNL1        0.0675
@<TRIPOS>BOND
     1     1     2    1
     2     1    32    1
     3     1    33    1
     4     1    34    1
     5     2     3    1
     6     2    35    1
     7     2    36    1
     8     3     4    1
     9     3    37    1
    10     3    38    1
    11     4     5    1
    12     4     6    1
    13     4     7    1
    14     6    39    1
    15     6    40    1
    16     6    41    1
    17     7     8   am
    18     7    42    1
    19     8     9    2
    20     8    10    1
    21    10    11    1
    22    10    43    1
    23    10    44    1
    24    11    12    1
    25    19    11    1
    26    12    13    1
    27    12    45    1
    28    12    46    1
    29    13    18   ar
    30    13    14   ar
    31    14    15   ar
    32    14    47    1
    33    15    16   ar
    34    15    48    1
    35    16    17   ar
    36    16    49    1
    37    17    18   ar
    38    17    50    1
    39    18    51    1
    40    19    20    2
    41    19    21    2
    42    19    22    1
    43    22    31   ar
    44    22    23   ar
    45    23    24   ar
    46    23    52    1
    47    24    25   ar
    48    24    53    1
    49    25    26    1
    50    25    28   ar
    51    26    27    1
    52    27    54    1
    53    27    55    1
    54    27    56    1
    55    28    29    1
    56    28    31   ar
    57    29    30    1
    58    30    57    1
    59    30    58    1
    60    30    59    1
    61    31    60    1
