@<TRIPOS>MOLECULE
ZINC000004454904
 48 49 0 0 0
SMALL
GASTEIGER

@<TRIPOS>ATOM
      1 C          -0.0541    1.5399    0.0456 C.3     1  UNL1       -0.0507
      2 C          -0.0381    0.0100    0.0371 C.3     1  UNL1        0.0177
      3 N           0.6778   -0.4774    1.2186 N.3     1  UNL1       -0.1771
      4 C          -0.0299   -0.6318    2.4920 C.3     1  UNL1        0.0177
      5 C          -0.7211   -1.9962    2.5292 C.3     1  UNL1       -0.0507
      6 S           2.2871   -0.8539    1.1148 S.O2    1  UNL1        0.0609
      7 O           2.5527   -1.7732    2.1653 O.2     1  UNL1       -0.1528
      8 O           2.5446   -1.1410   -0.2529 O.2     1  UNL1       -0.1528
      9 C           3.1909    0.6103    1.4945 C.ar    1  UNL1        0.1075
     10 C           3.5357    1.4890    0.4847 C.ar    1  UNL1       -0.0318
     11 C           4.2449    2.6397    0.7766 C.ar    1  UNL1       -0.0163
     12 C           4.6119    2.9146    2.0837 C.ar    1  UNL1        0.1413
     13 O           5.3089    4.0459    2.3723 O.3     1  UNL1       -0.4933
     14 C           5.6296    4.9072    1.2781 C.3     1  UNL1        0.0789
     15 C           4.2646    2.0293    3.1020 C.ar    1  UNL1        0.0775
     16 N           4.6327    2.3023    4.4261 N.am    1  UNL1       -0.2804
     17 C           4.7582    1.2945    5.3122 C.2     1  UNL1        0.2462
     18 O           4.6513    0.1445    4.9418 O.2     1  UNL1       -0.2726
     19 C           5.0314    1.5965    6.7631 C.3     1  UNL1        0.1347
     20 H           4.2637    2.2653    7.1524 H       1  UNL1        0.0693
     21 C           6.4210    2.2533    6.9088 C.3     1  UNL1       -0.0159
     22 C           6.9601    1.5988    8.2099 C.3     1  UNL1       -0.0266
     23 C           6.3435    0.1814    8.1035 C.3     1  UNL1        0.0487
     24 O           5.0445    0.3797    7.5186 O.3     1  UNL1       -0.3673
     25 C           3.5484    0.8801    2.8024 C.ar    1  UNL1       -0.0105
     26 H           0.9695    1.9141    0.0301 H       1  UNL1        0.0243
     27 H          -0.5868    1.9026   -0.8335 H       1  UNL1        0.0243
     28 H          -0.5565    1.8931    0.9462 H       1  UNL1        0.0243
     29 H          -1.0618   -0.3641    0.0525 H       1  UNL1        0.0441
     30 H           0.4642   -0.3431   -0.8635 H       1  UNL1        0.0441
     31 H           0.6824   -0.5628    3.3142 H       1  UNL1        0.0441
     32 H          -0.7762    0.1564    2.5908 H       1  UNL1        0.0441
     33 H          -1.4334   -2.0652    1.7070 H       1  UNL1        0.0243
     34 H           0.0252   -2.7844    2.4304 H       1  UNL1        0.0243
     35 H          -1.2477   -2.1111    3.4766 H       1  UNL1        0.0243
     36 H           3.2507    1.2762   -0.5350 H       1  UNL1        0.0638
     37 H           4.5130    3.3240   -0.0147 H       1  UNL1        0.0655
     38 H           6.2385    4.3646    0.5550 H       1  UNL1        0.0660
     39 H           4.7102    5.2439    0.7991 H       1  UNL1        0.0660
     40 H           6.1849    5.7702    1.6457 H       1  UNL1        0.0660
     41 H           4.7972    3.2167    4.7051 H       1  UNL1        0.1550
     42 H           7.0572    2.0077    6.0585 H       1  UNL1        0.0296
     43 H           6.3292    3.3330    7.0269 H       1  UNL1        0.0296
     44 H           8.0492    1.5548    8.2053 H       1  UNL1        0.0288
     45 H           6.5937    2.1214    9.0935 H       1  UNL1        0.0288
     46 H           6.9562   -0.4505    7.4605 H       1  UNL1        0.0560
     47 H           6.2477   -0.2648    9.0933 H       1  UNL1        0.0560
     48 H           3.2773    0.1920    3.5894 H       1  UNL1        0.0657
@<TRIPOS>BOND
     1     1     2    1
     2     1    26    1
     3     1    27    1
     4     1    28    1
     5     2     3    1
     6     2    29    1
     7     2    30    1
     8     3     4    1
     9     6     3    1
    10     4     5    1
    11     4    31    1
    12     4    32    1
    13     5    33    1
    14     5    34    1
    15     5    35    1
    16     6     7    2
    17     6     8    2
    18     6     9    1
    19     9    25   ar
    20     9    10   ar
    21    10    11   ar
    22    10    36    1
    23    11    12   ar
    24    11    37    1
    25    12    13    1
    26    12    15   ar
    27    13    14    1
    28    14    38    1
    29    14    39    1
    30    14    40    1
    31    15    16    1
    32    15    25   ar
    33    16    17   am
    34    16    41    1
    35    17    18    2
    36    17    19    1
    37    19    20    1
    38    19    24    1
    39    19    21    1
    40    21    22    1
    41    21    42    1
    42    21    43    1
    43    22    23    1
    44    22    44    1
    45    22    45    1
    46    23    24    1
    47    23    46    1
    48    23    47    1
    49    25    48    1
