@<TRIPOS>MOLECULE
ZINC000023805398
 49 51 0 0 0
SMALL
GASTEIGER

@<TRIPOS>ATOM
      1 O           0.0021   -0.0041    0.0020 O.2     1  UNL1       -0.1528
      2 S          -0.0172    1.4168    0.0098 S.O2    1  UNL1        0.0609
      3 O           1.1617    2.2101    0.0028 O.2     1  UNL1       -0.1528
      4 C          -0.9567    1.9094   -1.3970 C.ar    1  UNL1        0.1055
      5 C          -1.8848    1.0442   -1.9458 C.ar    1  UNL1       -0.0348
      6 C          -2.6219    1.4307   -3.0496 C.ar    1  UNL1       -0.0483
      7 C          -2.4313    2.6825   -3.6042 C.ar    1  UNL1        0.0549
      8 C          -3.2345    3.1036   -4.8078 C.3     1  UNL1        0.4174
      9 F          -4.4138    3.7273   -4.3864 F       1  UNL1       -0.1659
     10 F          -2.4843    3.9973   -5.5796 F       1  UNL1       -0.1659
     11 F          -3.5510    1.9771   -5.5746 F       1  UNL1       -0.1659
     12 C          -1.5042    3.5481   -3.0546 C.ar    1  UNL1       -0.0483
     13 C          -0.7699    3.1631   -1.9485 C.ar    1  UNL1       -0.0348
     14 N          -0.8748    1.8654    1.3536 N.3     1  UNL1       -0.1741
     15 C          -0.6844    3.1904    1.9630 C.3     1  UNL1        0.0333
     16 C          -2.0577    3.8473    2.1385 C.3     1  UNL1        0.0135
     17 N          -2.9388    2.9404    2.8863 N.3     1  UNL1       -0.2970
     18 C          -4.2073    3.5994    3.2250 C.3     1  UNL1        0.0292
     19 C          -4.9899    2.7250    4.2068 C.3     1  UNL1        0.0928
     20 H          -5.1172    1.7284    3.7839 H       1  UNL1        0.0656
     21 O          -4.2717    2.6316    5.4386 O.3     1  UNL1       -0.3859
     22 C          -6.3424    3.3400    4.4592 C.ar    1  UNL1       -0.0179
     23 C          -6.4677    4.3947    5.3440 C.ar    1  UNL1       -0.0561
     24 C          -7.7083    4.9589    5.5756 C.ar    1  UNL1       -0.0614
     25 C          -8.8234    4.4687    4.9221 C.ar    1  UNL1       -0.0617
     26 C          -8.6979    3.4146    4.0366 C.ar    1  UNL1       -0.0614
     27 C          -7.4567    2.8532    3.8018 C.ar    1  UNL1       -0.0561
     28 C          -3.1744    1.6945    2.1446 C.3     1  UNL1        0.0135
     29 C          -1.8513    0.9517    1.9657 C.3     1  UNL1        0.0333
     30 H          -2.0336    0.0662   -1.5125 H       1  UNL1        0.0637
     31 H          -3.3464    0.7545   -3.4788 H       1  UNL1        0.0624
     32 H          -1.3556    4.5263   -3.4877 H       1  UNL1        0.0624
     33 H          -0.0456    3.8394   -1.5191 H       1  UNL1        0.0637
     34 H          -0.2041    3.0807    2.9352 H       1  UNL1        0.0456
     35 H          -0.0641    3.8070    1.3124 H       1  UNL1        0.0456
     36 H          -1.9464    4.7818    2.6884 H       1  UNL1        0.0440
     37 H          -2.4915    4.0505    1.1594 H       1  UNL1        0.0440
     38 H          -4.0030    4.5670    3.6835 H       1  UNL1        0.0455
     39 H          -4.7952    3.7436    2.3186 H       1  UNL1        0.0455
     40 H          -4.1215    3.4830    5.8719 H       1  UNL1        0.2103
     41 H          -5.5965    4.7777    5.8546 H       1  UNL1        0.0621
     42 H          -7.8063    5.7824    6.2674 H       1  UNL1        0.0618
     43 H          -9.7927    4.9090    5.1035 H       1  UNL1        0.0618
     44 H          -9.5691    3.0314    3.5263 H       1  UNL1        0.0618
     45 H          -7.3586    2.0297    3.1100 H       1  UNL1        0.0621
     46 H          -3.8729    1.0677    2.6990 H       1  UNL1        0.0440
     47 H          -3.5927    1.9277    1.1654 H       1  UNL1        0.0440
     48 H          -2.0014    0.0870    1.3193 H       1  UNL1        0.0456
     49 H          -1.4800    0.6260    2.9374 H       1  UNL1        0.0456
@<TRIPOS>BOND
     1     1     2    2
     2     2     3    2
     3     2     4    1
     4     2    14    1
     5     4    13   ar
     6     4     5   ar
     7     5     6   ar
     8     5    30    1
     9     6     7   ar
    10     6    31    1
    11     7     8    1
    12     7    12   ar
    13     8     9    1
    14     8    10    1
    15     8    11    1
    16    12    13   ar
    17    12    32    1
    18    13    33    1
    19    14    29    1
    20    14    15    1
    21    15    16    1
    22    15    34    1
    23    15    35    1
    24    16    17    1
    25    16    36    1
    26    16    37    1
    27    17    18    1
    28    17    28    1
    29    18    19    1
    30    18    38    1
    31    18    39    1
    32    19    20    1
    33    19    21    1
    34    19    22    1
    35    21    40    1
    36    22    27   ar
    37    22    23   ar
    38    23    24   ar
    39    23    41    1
    40    24    25   ar
    41    24    42    1
    42    25    26   ar
    43    25    43    1
    44    26    27   ar
    45    26    44    1
    46    27    45    1
    47    28    29    1
    48    28    46    1
    49    28    47    1
    50    29    48    1
    51    29    49    1
