@<TRIPOS>MOLECULE
ZINC000001158849
 51 53 0 0 0
SMALL
GASTEIGER

@<TRIPOS>ATOM
      1 O           0.0021   -0.0041    0.0020 O.2     1  UNL1       -0.2743
      2 C          -0.0144    1.2086    0.0087 C.2     1  UNL1        0.2289
      3 C           1.2803    1.9798    0.0005 C.3     1  UNL1        0.0971
      4 N           2.4066    1.0431   -0.0153 N.3     1  UNL1       -0.1635
      5 C           2.8870    0.4965   -1.2868 C.3     1  UNL1        0.0460
      6 C           3.8656    1.4585   -1.9094 C.ar    1  UNL1       -0.0316
      7 C           3.4142    2.4469   -2.7641 C.ar    1  UNL1       -0.0559
      8 C           4.3113    3.3296   -3.3354 C.ar    1  UNL1       -0.0431
      9 C           5.6613    3.2238   -3.0519 C.ar    1  UNL1        0.0410
     10 CL          6.7886    4.3324   -3.7687 Cl      1  UNL1       -0.0835
     11 C           6.1125    2.2344   -2.1965 C.ar    1  UNL1       -0.0431
     12 C           5.2138    1.3559   -1.6213 C.ar    1  UNL1       -0.0559
     13 S           3.1367    0.6021    1.4041 S.O2    1  UNL1        0.0616
     14 O           4.4513    0.1819    1.0655 O.2     1  UNL1       -0.1528
     15 O           2.8687    1.6430    2.3335 O.2     1  UNL1       -0.1528
     16 C           2.2960   -0.8267    2.0012 C.ar    1  UNL1        0.1056
     17 C           1.2047   -0.6868    2.8382 C.ar    1  UNL1       -0.0340
     18 C           0.5448   -1.8072    3.3069 C.ar    1  UNL1       -0.0415
     19 C           0.9766   -3.0688    2.9381 C.ar    1  UNL1        0.0411
     20 CL          0.1479   -4.4765    3.5259 Cl      1  UNL1       -0.0835
     21 C           2.0688   -3.2082    2.1004 C.ar    1  UNL1       -0.0415
     22 C           2.7245   -2.0869    1.6278 C.ar    1  UNL1       -0.0340
     23 N          -1.1906    1.8666    0.0178 N.am    1  UNL1       -0.3117
     24 C          -2.4492    1.1169    0.0197 C.3     1  UNL1        0.0379
     25 C          -3.6255    2.0952    0.0306 C.3     1  UNL1        0.0742
     26 H          -3.5863    2.7429   -0.8452 H       1  UNL1        0.0611
     27 C          -4.9678    1.3220    0.0681 C.3     1  UNL1       -0.0231
     28 C          -5.9021    2.3843    0.7088 C.3     1  UNL1       -0.0271
     29 C          -4.9509    3.1125    1.6826 C.3     1  UNL1        0.0482
     30 O          -3.6093    2.8811    1.2330 O.3     1  UNL1       -0.3750
     31 H           1.3211    2.6120   -0.8866 H       1  UNL1        0.0539
     32 H           1.3381    2.6024    0.8933 H       1  UNL1        0.0539
     33 H           3.3803   -0.4590   -1.1083 H       1  UNL1        0.0493
     34 H           2.0432    0.3494   -1.9610 H       1  UNL1        0.0493
     35 H           2.3604    2.5292   -2.9856 H       1  UNL1        0.0621
     36 H           3.9585    4.1015   -4.0033 H       1  UNL1        0.0632
     37 H           7.1663    2.1511   -1.9751 H       1  UNL1        0.0632
     38 H           5.5658    0.5837   -0.9533 H       1  UNL1        0.0621
     39 H           0.8680    0.2980    3.1262 H       1  UNL1        0.0637
     40 H          -0.3075   -1.6978    3.9611 H       1  UNL1        0.0633
     41 H           2.4065   -4.1928    1.8125 H       1  UNL1        0.0633
     42 H           3.5768   -2.1955    0.9736 H       1  UNL1        0.0637
     43 H          -1.2037    2.8365    0.0232 H       1  UNL1        0.1488
     44 H          -2.5027    0.4944   -0.8734 H       1  UNL1        0.0487
     45 H          -2.4943    0.4847    0.9065 H       1  UNL1        0.0487
     46 H          -5.2996    1.0622   -0.9372 H       1  UNL1        0.0291
     47 H          -4.8926    0.4347    0.6966 H       1  UNL1        0.0291
     48 H          -6.2842    3.0710   -0.0465 H       1  UNL1        0.0288
     49 H          -6.7193    1.9066    1.2493 H       1  UNL1        0.0288
     50 H          -5.1624    4.1818    1.6758 H       1  UNL1        0.0560
     51 H          -5.0781    2.7157    2.6898 H       1  UNL1        0.0560
@<TRIPOS>BOND
     1     1     2    2
     2     2     3    1
     3     2    23   am
     4     3     4    1
     5     3    31    1
     6     3    32    1
     7     4     5    1
     8    13     4    1
     9     5     6    1
    10     5    33    1
    11     5    34    1
    12     6    12   ar
    13     6     7   ar
    14     7     8   ar
    15     7    35    1
    16     8     9   ar
    17     8    36    1
    18     9    10    1
    19     9    11   ar
    20    11    12   ar
    21    11    37    1
    22    12    38    1
    23    13    14    2
    24    13    15    2
    25    13    16    1
    26    16    22   ar
    27    16    17   ar
    28    17    18   ar
    29    17    39    1
    30    18    19   ar
    31    18    40    1
    32    19    20    1
    33    19    21   ar
    34    21    22   ar
    35    21    41    1
    36    22    42    1
    37    23    24    1
    38    23    43    1
    39    24    25    1
    40    24    44    1
    41    24    45    1
    42    25    26    1
    43    25    30    1
    44    25    27    1
    45    27    28    1
    46    27    46    1
    47    27    47    1
    48    28    29    1
    49    28    48    1
    50    28    49    1
    51    29    30    1
    52    29    50    1
    53    29    51    1
