@<TRIPOS>MOLECULE
ZINC000040059736
 45 48 0 0 0
SMALL
GASTEIGER

@<TRIPOS>ATOM
      1 O           1.8571    0.7115    0.6554 O.2     1  UNL1       -0.1528
      2 S           0.7566    0.1459    1.3541 S.O2    1  UNL1        0.0618
      3 O          -0.1880   -0.7228    0.7439 O.2     1  UNL1       -0.1528
      4 C           1.4350   -0.7371    2.7196 C.ar    1  UNL1        0.1055
      5 C           2.6245   -0.3222    3.2889 C.ar    1  UNL1       -0.0348
      6 C           3.1567   -1.0150    4.3601 C.ar    1  UNL1       -0.0483
      7 C           2.4994   -2.1225    4.8624 C.ar    1  UNL1        0.0549
      8 C           3.0799   -2.8780    6.0300 C.3     1  UNL1        0.4174
      9 F           2.5917   -2.3375    7.2244 F       1  UNL1       -0.1659
     10 F           2.7121   -4.2250    5.9431 F       1  UNL1       -0.1659
     11 F           4.4747   -2.7730    6.0063 F       1  UNL1       -0.1659
     12 C           1.3092   -2.5366    4.2941 C.ar    1  UNL1       -0.0483
     13 C           0.7750   -1.8415    3.2253 C.ar    1  UNL1       -0.0348
     14 N          -0.1075    1.4161    1.9724 N.3     1  UNL1       -0.1617
     15 C           0.5520    2.6853    2.3142 C.3     1  UNL1        0.0395
     16 C           0.0060    3.7981    1.4136 C.3     1  UNL1        0.0375
     17 N          -1.4578    3.7095    1.3696 N.ar    1  UNL1       -0.3475
     18 C          -2.3251    4.6875    0.9908 C.ar    1  UNL1        0.0049
     19 C          -3.5800    4.1993    1.0839 C.ar    1  UNL1       -0.0439
     20 C          -3.4836    2.8683    1.5408 C.ar    1  UNL1       -0.0390
     21 C          -2.1799    2.5981    1.7099 C.ar    1  UNL1        0.0421
     22 C          -1.5621    1.3100    2.1907 C.3     1  UNL1        0.0968
     23 H          -1.7665    1.1731    3.2526 H       1  UNL1        0.0594
     24 C          -2.1177    0.1492    1.4066 C.ar    1  UNL1       -0.0229
     25 C          -2.3031    0.2627    0.0415 C.ar    1  UNL1       -0.0567
     26 C          -2.8128   -0.8021   -0.6777 C.ar    1  UNL1       -0.0614
     27 C          -3.1365   -1.9807   -0.0319 C.ar    1  UNL1       -0.0617
     28 C          -2.9503   -2.0945    1.3331 C.ar    1  UNL1       -0.0614
     29 C          -2.4366   -1.0311    2.0517 C.ar    1  UNL1       -0.0567
     30 H           3.1381    0.5430    2.8964 H       1  UNL1        0.0637
     31 H           4.0864   -0.6913    4.8044 H       1  UNL1        0.0624
     32 H           0.7955   -3.4016    4.6868 H       1  UNL1        0.0624
     33 H          -0.1548   -2.1650    2.7812 H       1  UNL1        0.0637
     34 H           0.3516    2.9301    3.3573 H       1  UNL1        0.0462
     35 H           1.6271    2.5891    2.1626 H       1  UNL1        0.0462
     36 H           0.3001    4.7681    1.8144 H       1  UNL1        0.0505
     37 H           0.4081    3.6822    0.4072 H       1  UNL1        0.0505
     38 H          -2.0556    5.6832    0.6711 H       1  UNL1        0.0809
     39 H          -4.4910    4.7305    0.8511 H       1  UNL1        0.0633
     40 H          -4.3062    2.1921    1.7208 H       1  UNL1        0.0636
     41 H          -2.0502    1.1835   -0.4631 H       1  UNL1        0.0621
     42 H          -2.9583   -0.7132   -1.7442 H       1  UNL1        0.0618
     43 H          -3.5354   -2.8124   -0.5937 H       1  UNL1        0.0618
     44 H          -3.2035   -3.0152    1.8378 H       1  UNL1        0.0618
     45 H          -2.2911   -1.1201    3.1181 H       1  UNL1        0.0621
@<TRIPOS>BOND
     1     1     2    2
     2     2     3    2
     3     2     4    1
     4     2    14    1
     5     4    13   ar
     6     4     5   ar
     7     5     6   ar
     8     5    30    1
     9     6     7   ar
    10     6    31    1
    11     7     8    1
    12     7    12   ar
    13     8     9    1
    14     8    10    1
    15     8    11    1
    16    12    13   ar
    17    12    32    1
    18    13    33    1
    19    14    22    1
    20    14    15    1
    21    15    16    1
    22    15    34    1
    23    15    35    1
    24    16    17    1
    25    16    36    1
    26    16    37    1
    27    17    21   ar
    28    17    18   ar
    29    18    19   ar
    30    18    38    1
    31    19    20   ar
    32    19    39    1
    33    20    21   ar
    34    20    40    1
    35    21    22    1
    36    22    23    1
    37    22    24    1
    38    24    29   ar
    39    24    25   ar
    40    25    26   ar
    41    25    41    1
    42    26    27   ar
    43    26    42    1
    44    27    28   ar
    45    27    43    1
    46    28    29   ar
    47    28    44    1
    48    29    45    1
