@<TRIPOS>MOLECULE
ZINC000408534418
 62 63 0 0 0
SMALL
GASTEIGER

@<TRIPOS>ATOM
      1 C          -0.0187    1.5258    0.0104 C.3     1  UNL1       -0.0652
      2 C           0.0021   -0.0041    0.0020 C.3     1  UNL1       -0.0542
      3 C           0.7421   -0.5109    1.2415 C.3     1  UNL1       -0.0350
      4 C           0.7628   -2.0407    1.2331 C.3     1  UNL1        0.0203
      5 H          -0.2567   -2.4175    1.1513 H       1  UNL1        0.0495
      6 C           1.3918   -2.5494    2.5318 C.3     1  UNL1       -0.0466
      7 N           1.5508   -2.5122    0.0916 N.am    1  UNL1       -0.3116
      8 C           1.3205   -3.7345   -0.4273 C.2     1  UNL1        0.2290
      9 O           0.4611   -4.4442    0.0507 O.2     1  UNL1       -0.2743
     10 C           2.1311   -4.2195   -1.6016 C.3     1  UNL1        0.0968
     11 N           1.6924   -5.5665   -1.9748 N.3     1  UNL1       -0.1675
     12 C           0.5477   -5.7417   -2.8721 C.3     1  UNL1        0.0250
     13 C           1.0199   -5.6520   -4.3247 C.3     1  UNL1       -0.0132
     14 C          -0.1577   -5.8323   -5.2477 C.ar    1  UNL1       -0.0461
     15 C          -0.5113   -7.0975   -5.6779 C.ar    1  UNL1       -0.0585
     16 C          -1.5914   -7.2628   -6.5246 C.ar    1  UNL1       -0.0615
     17 C          -2.3182   -6.1630   -6.9407 C.ar    1  UNL1       -0.0617
     18 C          -1.9651   -4.8979   -6.5098 C.ar    1  UNL1       -0.0615
     19 C          -0.8875   -4.7330   -5.6597 C.ar    1  UNL1       -0.0585
     20 S           2.4905   -6.8911   -1.3824 S.O2    1  UNL1        0.0613
     21 O           2.2389   -7.9519   -2.2938 O.2     1  UNL1       -0.1528
     22 O           3.7986   -6.4524   -1.0423 O.2     1  UNL1       -0.1528
     23 C           1.7066   -7.3386    0.1308 C.ar    1  UNL1        0.1060
     24 C           2.1434   -6.7909    1.3226 C.ar    1  UNL1       -0.0319
     25 C           1.5301   -7.1399    2.5104 C.ar    1  UNL1       -0.0178
     26 C           0.4752   -8.0407    2.5065 C.ar    1  UNL1        0.1231
     27 O          -0.1299   -8.3852    3.6735 O.3     1  UNL1       -0.4948
     28 C           0.3717   -7.7812    4.8675 C.3     1  UNL1        0.0788
     29 C           0.0387   -8.5890    1.3090 C.ar    1  UNL1       -0.0070
     30 C          -1.1073   -9.5676    1.3010 C.3     1  UNL1       -0.0362
     31 C           0.6518   -8.2329    0.1236 C.ar    1  UNL1       -0.0290
     32 H           1.0039    1.9031    0.0027 H       1  UNL1        0.0230
     33 H          -0.5459    1.8868   -0.8726 H       1  UNL1        0.0230
     34 H          -0.5289    1.8773    0.9072 H       1  UNL1        0.0230
     35 H          -1.0205   -0.3814    0.0098 H       1  UNL1        0.0263
     36 H           0.5123   -0.3556   -0.8948 H       1  UNL1        0.0263
     37 H           1.7647   -0.1336    1.2338 H       1  UNL1        0.0283
     38 H           0.2319   -0.1594    2.1383 H       1  UNL1        0.0283
     39 H           2.4113   -2.1727    2.6137 H       1  UNL1        0.0247
     40 H           0.8055   -2.1987    3.3812 H       1  UNL1        0.0247
     41 H           1.4065   -3.6393    2.5258 H       1  UNL1        0.0247
     42 H           2.2382   -1.9445   -0.2908 H       1  UNL1        0.1490
     43 H           1.9885   -3.5441   -2.4452 H       1  UNL1        0.0539
     44 H           3.1863   -4.2433   -1.3297 H       1  UNL1        0.0539
     45 H           0.0948   -6.7176   -2.6970 H       1  UNL1        0.0447
     46 H          -0.1875   -4.9602   -2.6801 H       1  UNL1        0.0447
     47 H           1.4728   -4.6761   -4.4999 H       1  UNL1        0.0326
     48 H           1.7550   -6.4335   -4.5167 H       1  UNL1        0.0326
     49 H           0.0565   -7.9567   -5.3527 H       1  UNL1        0.0620
     50 H          -1.8673   -8.2513   -6.8612 H       1  UNL1        0.0618
     51 H          -3.1616   -6.2922   -7.6028 H       1  UNL1        0.0618
     52 H          -2.5326   -4.0386   -6.8353 H       1  UNL1        0.0618
     53 H          -0.6117   -3.7446   -5.3231 H       1  UNL1        0.0620
     54 H           2.9649   -6.0899    1.3251 H       1  UNL1        0.0638
     55 H           1.8719   -6.7120    3.4413 H       1  UNL1        0.0655
     56 H          -0.1982   -8.1414    5.7240 H       1  UNL1        0.0660
     57 H           1.4221   -8.0435    4.9937 H       1  UNL1        0.0660
     58 H           0.2738   -6.6980    4.7955 H       1  UNL1        0.0660
     59 H          -2.0463   -9.0264    1.1849 H       1  UNL1        0.0279
     60 H          -0.9845  -10.2643    0.4718 H       1  UNL1        0.0279
     61 H          -1.1201  -10.1198    2.2407 H       1  UNL1        0.0279
     62 H           0.3121   -8.6591   -0.8088 H       1  UNL1        0.0641
@<TRIPOS>BOND
     1     1     2    1
     2     1    32    1
     3     1    33    1
     4     1    34    1
     5     2     3    1
     6     2    35    1
     7     2    36    1
     8     3     4    1
     9     3    37    1
    10     3    38    1
    11     4     5    1
    12     4     6    1
    13     4     7    1
    14     6    39    1
    15     6    40    1
    16     6    41    1
    17     7     8   am
    18     7    42    1
    19     8     9    2
    20     8    10    1
    21    10    11    1
    22    10    43    1
    23    10    44    1
    24    11    12    1
    25    20    11    1
    26    12    13    1
    27    12    45    1
    28    12    46    1
    29    13    14    1
    30    13    47    1
    31    13    48    1
    32    14    19   ar
    33    14    15   ar
    34    15    16   ar
    35    15    49    1
    36    16    17   ar
    37    16    50    1
    38    17    18   ar
    39    17    51    1
    40    18    19   ar
    41    18    52    1
    42    19    53    1
    43    20    21    2
    44    20    22    2
    45    20    23    1
    46    23    31   ar
    47    23    24   ar
    48    24    25   ar
    49    24    54    1
    50    25    26   ar
    51    25    55    1
    52    26    27    1
    53    26    29   ar
    54    27    28    1
    55    28    56    1
    56    28    57    1
    57    28    58    1
    58    29    30    1
    59    29    31   ar
    60    30    59    1
    61    30    60    1
    62    30    61    1
    63    31    62    1
