@<TRIPOS>MOLECULE
ZINC000651783070
 41 43 0 0 0
SMALL
GASTEIGER

@<TRIPOS>ATOM
      1 O           0.0021   -0.0041    0.0020 O.2     1  UNL1       -0.1528
      2 S          -0.0172    1.4168    0.0098 S.O2    1  UNL1        0.0609
      3 O           1.1617    2.2101    0.0028 O.2     1  UNL1       -0.1528
      4 C          -0.9567    1.9094   -1.3970 C.ar    1  UNL1        0.1060
      5 C          -1.8846    1.0444   -1.9457 C.ar    1  UNL1       -0.0353
      6 C          -2.6218    1.4309   -3.0496 C.ar    1  UNL1       -0.0594
      7 C          -2.4313    2.6825   -3.6042 C.ar    1  UNL1       -0.0500
      8 C          -1.5038    3.5481   -3.0548 C.ar    1  UNL1        0.0567
      9 C          -1.2957    4.9126   -3.6597 C.3     1  UNL1        0.4175
     10 F          -2.1479    5.0707   -4.7579 F       1  UNL1       -0.1659
     11 F          -1.5791    5.8944   -2.7043 F       1  UNL1       -0.1659
     12 F           0.0331    5.0393   -4.0785 F       1  UNL1       -0.1659
     13 C          -0.7698    3.1633   -1.9486 C.ar    1  UNL1       -0.0237
     14 N          -0.8748    1.8654    1.3536 N.3     1  UNL1       -0.1766
     15 C          -0.6802    3.1905    1.9578 C.3     1  UNL1        0.0208
     16 C          -2.0421    3.8813    2.0802 C.3     1  UNL1       -0.0331
     17 C          -3.0026    2.9735    2.8519 C.3     1  UNL1       -0.0097
     18 C          -4.3536    3.6747    3.0061 C.3     1  UNL1        0.0692
     19 O          -4.2970    5.0940    3.1626 O.3     1  UNL1       -0.3883
     20 C          -5.5423    3.0953    2.2366 C.3     1  UNL1       -0.0211
     21 C          -5.4574    2.9249    3.7547 C.3     1  UNL1       -0.0211
     22 C          -3.1933    1.6620    2.0865 C.3     1  UNL1       -0.0331
     23 C          -1.8490    0.9483    1.9606 C.3     1  UNL1        0.0208
     24 H          -2.0335    0.0664   -1.5124 H       1  UNL1        0.0637
     25 H          -3.3463    0.7547   -3.4789 H       1  UNL1        0.0618
     26 H          -3.0066    2.9841   -4.4670 H       1  UNL1        0.0623
     27 H          -0.0453    3.8395   -1.5194 H       1  UNL1        0.0642
     28 H          -0.2367    3.0793    2.9473 H       1  UNL1        0.0444
     29 H          -0.0232    3.7875    1.3255 H       1  UNL1        0.0444
     30 H          -1.9249    4.8244    2.6141 H       1  UNL1        0.0282
     31 H          -2.4433    4.0734    1.0852 H       1  UNL1        0.0282
     32 H          -2.5888    2.7615    3.8377 H       1  UNL1        0.0329
     33 H          -5.1628    5.5140    3.2581 H       1  UNL1        0.2102
     34 H          -6.2814    3.7966    1.8494 H       1  UNL1        0.0294
     35 H          -5.3618    2.2144    1.6204 H       1  UNL1        0.0294
     36 H          -5.2211    1.9320    4.1373 H       1  UNL1        0.0294
     37 H          -6.1406    3.5143    4.3662 H       1  UNL1        0.0294
     38 H          -3.8956    1.0254    2.6248 H       1  UNL1        0.0282
     39 H          -3.5837    1.8749    1.0914 H       1  UNL1        0.0282
     40 H          -1.9618    0.0648    1.3323 H       1  UNL1        0.0444
     41 H          -1.4977    0.6536    2.9494 H       1  UNL1        0.0444
@<TRIPOS>BOND
     1     1     2    2
     2     2     3    2
     3     2     4    1
     4     2    14    1
     5     4    13   ar
     6     4     5   ar
     7     5     6   ar
     8     5    24    1
     9     6     7   ar
    10     6    25    1
    11     7     8   ar
    12     7    26    1
    13     8     9    1
    14     8    13   ar
    15     9    10    1
    16     9    11    1
    17     9    12    1
    18    13    27    1
    19    14    23    1
    20    14    15    1
    21    15    16    1
    22    15    28    1
    23    15    29    1
    24    16    17    1
    25    16    30    1
    26    16    31    1
    27    17    18    1
    28    17    22    1
    29    17    32    1
    30    18    21    1
    31    18    19    1
    32    18    20    1
    33    19    33    1
    34    20    21    1
    35    20    34    1
    36    20    35    1
    37    21    36    1
    38    21    37    1
    39    22    23    1
    40    22    38    1
    41    22    39    1
    42    23    40    1
    43    23    41    1
