@<TRIPOS>MOLECULE
ZINC000013654998
 47 49 0 0 0
SMALL
GASTEIGER

@<TRIPOS>ATOM
      1 O           0.0021   -0.0041    0.0020 O.2     1  UNL1       -0.2754
      2 C          -0.0144    1.2086    0.0087 C.2     1  UNL1        0.2182
      3 N           1.1435    1.8983    0.0013 N.am    1  UNL1       -0.2796
      4 C           2.4220    1.1832   -0.0147 C.3     1  UNL1        0.2776
      5 C           2.5588    0.3570   -1.2952 C.3     1  UNL1        0.4365
      6 F           2.4831    1.2034   -2.4066 F       1  UNL1       -0.1662
      7 F           3.7923   -0.3030   -1.2948 F       1  UNL1       -0.1662
      8 F           1.5260   -0.5848   -1.3551 F       1  UNL1       -0.1662
      9 N           3.5453    2.1266    0.1196 N.am    1  UNL1       -0.2632
     10 C           4.1909    1.7974    1.2531 C.2     1  UNL1        0.3110
     11 O           5.1744    2.3812    1.6644 O.2     1  UNL1       -0.2521
     12 N           3.6292    0.7556    1.8769 N.am    1  UNL1       -0.2181
     13 C           4.1229    0.1844    3.1324 C.3     1  UNL1        0.0503
     14 C           3.4588    0.8767    4.2947 C.ar    1  UNL1       -0.0113
     15 C           4.1267    1.8753    4.9776 C.ar    1  UNL1       -0.0557
     16 C           3.5176    2.5105    6.0440 C.ar    1  UNL1       -0.0614
     17 C           2.2406    2.1468    6.4279 C.ar    1  UNL1       -0.0604
     18 C           1.5714    1.1480    5.7455 C.ar    1  UNL1       -0.0431
     19 C           2.1780    0.5164    4.6747 C.ar    1  UNL1        0.0457
     20 CL          1.3383   -0.7379    3.8172 Cl      1  UNL1       -0.0832
     21 C           2.5528    0.2971    1.2082 C.2     1  UNL1        0.2745
     22 O           1.8374   -0.6306    1.5202 O.2     1  UNL1       -0.2706
     23 C          -1.3296    1.9443    0.0189 C.3     1  UNL1        0.0356
     24 C          -1.4285    2.8295   -1.2251 C.3     1  UNL1       -0.0419
     25 C          -2.7637    3.5764   -1.2147 C.3     1  UNL1       -0.0524
     26 C          -3.9130    2.5665   -1.2147 C.3     1  UNL1       -0.0530
     27 C          -3.8141    1.6813    0.0293 C.3     1  UNL1       -0.0524
     28 C          -2.4789    0.9344    0.0189 C.3     1  UNL1       -0.0419
     29 H           1.1304    2.8682    0.0067 H       1  UNL1        0.1515
     30 H           3.7751    2.8449   -0.4905 H       1  UNL1        0.1530
     31 H           3.8913   -0.8802    3.1631 H       1  UNL1        0.0520
     32 H           5.2022    0.3234    3.1952 H       1  UNL1        0.0520
     33 H           5.1249    2.1594    4.6785 H       1  UNL1        0.0621
     34 H           4.0400    3.2908    6.5774 H       1  UNL1        0.0618
     35 H           1.7656    2.6428    7.2614 H       1  UNL1        0.0618
     36 H           0.5736    0.8640    6.0456 H       1  UNL1        0.0632
     37 H          -1.3916    2.5653    0.9126 H       1  UNL1        0.0394
     38 H          -0.6097    3.5490   -1.2250 H       1  UNL1        0.0272
     39 H          -1.3664    2.2085   -2.1187 H       1  UNL1        0.0272
     40 H          -2.8257    4.1974   -0.3210 H       1  UNL1        0.0265
     41 H          -2.8342    4.2071   -2.1009 H       1  UNL1        0.0265
     42 H          -4.8643    3.0986   -1.2073 H       1  UNL1        0.0265
     43 H          -3.8510    1.9455   -2.1084 H       1  UNL1        0.0265
     44 H          -3.8761    2.3022    0.9230 H       1  UNL1        0.0265
     45 H          -4.6329    0.9618    0.0292 H       1  UNL1        0.0265
     46 H          -2.4169    0.3134   -0.8748 H       1  UNL1        0.0272
     47 H          -2.4084    0.3037    0.9051 H       1  UNL1        0.0272
@<TRIPOS>BOND
     1     1     2    2
     2     2     3   am
     3     2    23    1
     4     3    29    1
     5     4     3    1
     6     4    21    1
     7     4     5    1
     8     4     9    1
     9     5     6    1
    10     5     7    1
    11     5     8    1
    12     9    10   am
    13     9    30    1
    14    10    11    2
    15    10    12   am
    16    12    13    1
    17    12    21   am
    18    13    14    1
    19    13    31    1
    20    13    32    1
    21    14    19   ar
    22    14    15   ar
    23    15    16   ar
    24    15    33    1
    25    16    17   ar
    26    16    34    1
    27    17    18   ar
    28    17    35    1
    29    18    19   ar
    30    18    36    1
    31    19    20    1
    32    21    22    2
    33    23    28    1
    34    23    24    1
    35    23    37    1
    36    24    25    1
    37    24    38    1
    38    24    39    1
    39    25    26    1
    40    25    40    1
    41    25    41    1
    42    26    27    1
    43    26    42    1
    44    26    43    1
    45    27    28    1
    46    27    44    1
    47    27    45    1
    48    28    46    1
    49    28    47    1
