@<TRIPOS>MOLECULE
ZINC000007375556
 37 38 0 0 0
SMALL
GASTEIGER

@<TRIPOS>ATOM
      1 N           0.0644    1.1162    0.3587 N.am    1  UNL1       -0.3291
      2 C           0.1252   -0.2088    0.1196 C.2     1  UNL1        0.2137
      3 O           1.1916   -0.7329   -0.1233 O.2     1  UNL1       -0.2757
      4 C          -1.1320   -1.0391    0.1540 C.3     1  UNL1        0.0378
      5 C          -2.1165   -0.5174   -0.8951 C.3     1  UNL1       -0.0274
      6 C          -3.4063   -1.3416   -0.8337 C.3     1  UNL1        0.0212
      7 N          -3.0663   -2.7635   -0.9796 N.3     1  UNL1       -0.1765
      8 S          -3.8008   -3.6921   -2.1375 S.O2    1  UNL1        0.0623
      9 O          -3.8612   -5.0120   -1.6145 O.2     1  UNL1       -0.1528
     10 O          -4.9494   -2.9708   -2.5613 O.2     1  UNL1       -0.1528
     11 C          -2.7136   -3.7550   -3.5227 C.ar    1  UNL1        0.1242
     12 C          -2.1071   -4.9467   -3.8717 C.ar    1  UNL1       -0.0223
     13 C          -1.2540   -4.9962   -4.9585 C.ar    1  UNL1        0.0567
     14 C          -0.5929   -6.2960   -5.3386 C.3     1  UNL1        0.4175
     15 F          -1.4071   -6.9864   -6.2428 F       1  UNL1       -0.1659
     16 F           0.6457   -6.0329   -5.9334 F       1  UNL1       -0.1659
     17 F          -0.4036   -7.0755   -4.1924 F       1  UNL1       -0.1659
     18 C          -1.0075   -3.8540   -5.6969 C.ar    1  UNL1       -0.0486
     19 C          -1.6136   -2.6614   -5.3488 C.ar    1  UNL1       -0.0410
     20 C          -2.4714   -2.6124   -4.2647 C.ar    1  UNL1        0.0673
     21 CL         -3.2329   -1.1151   -3.8269 Cl      1  UNL1       -0.0815
     22 C          -2.0619   -3.3458   -0.0791 C.3     1  UNL1        0.0212
     23 C          -0.7872   -2.4991   -0.1490 C.3     1  UNL1       -0.0274
     24 H           0.8735    1.6506    0.3366 H       1  UNL1        0.1449
     25 H          -0.7891    1.5360    0.5490 H       1  UNL1        0.1449
     26 H          -1.5854   -0.9708    1.1429 H       1  UNL1        0.0395
     27 H          -2.3435    0.5292   -0.6923 H       1  UNL1        0.0285
     28 H          -1.6735   -0.6084   -1.8869 H       1  UNL1        0.0285
     29 H          -3.8979   -1.1800    0.1257 H       1  UNL1        0.0444
     30 H          -4.0716   -1.0400   -1.6428 H       1  UNL1        0.0444
     31 H          -2.2993   -5.8394   -3.2951 H       1  UNL1        0.0643
     32 H          -0.3410   -3.8933   -6.5458 H       1  UNL1        0.0623
     33 H          -1.4210   -1.7690   -5.9259 H       1  UNL1        0.0633
     34 H          -2.4438   -3.3476    0.9418 H       1  UNL1        0.0444
     35 H          -1.8401   -4.3666   -0.3904 H       1  UNL1        0.0444
     36 H          -0.3567   -2.5715   -1.1478 H       1  UNL1        0.0285
     37 H          -0.0681   -2.8629    0.5849 H       1  UNL1        0.0285
@<TRIPOS>BOND
     1     1     2   am
     2     1    24    1
     3     1    25    1
     4     2     3    2
     5     2     4    1
     6     4    23    1
     7     4     5    1
     8     4    26    1
     9     5     6    1
    10     5    27    1
    11     5    28    1
    12     6     7    1
    13     6    29    1
    14     6    30    1
    15     8     7    1
    16     7    22    1
    17     8     9    2
    18     8    10    2
    19     8    11    1
    20    11    20   ar
    21    11    12   ar
    22    12    13   ar
    23    12    31    1
    24    13    14    1
    25    13    18   ar
    26    14    15    1
    27    14    16    1
    28    14    17    1
    29    18    19   ar
    30    18    32    1
    31    19    20   ar
    32    19    33    1
    33    20    21    1
    34    22    23    1
    35    22    34    1
    36    22    35    1
    37    23    36    1
    38    23    37    1
