@<TRIPOS>MOLECULE
ZINC000071144684
 39 40 0 0 0
SMALL
GASTEIGER

@<TRIPOS>ATOM
      1 C          -0.0178    1.4648    0.0101 C.3     1  UNL1       -0.0449
      2 N           0.0021   -0.0041    0.0020 N.4     1  UNL1        0.2250
      3 H           0.4901   -0.3383    0.8195 H       1  UNL1        0.2011
      4 H          -0.9445   -0.3533    0.0092 H       1  UNL1        0.2011
      5 C           0.6897   -0.4778   -1.2066 C.3     1  UNL1       -0.0298
      6 C           0.7104   -2.0077   -1.2150 C.3     1  UNL1        0.0147
      7 H          -0.2966   -2.4105   -1.1064 H       1  UNL1        0.0366
      8 C           1.6514   -2.5572   -0.1105 C.3     1  UNL1       -0.0297
      9 C           2.0787   -3.9297   -0.6719 C.3     1  UNL1        0.0210
     10 N           1.8879   -3.8840   -2.1289 N.3     1  UNL1       -0.1761
     11 S           2.1829   -5.1288   -3.1805 S.O2    1  UNL1        0.0609
     12 O           2.4069   -4.5354   -4.4521 O.2     1  UNL1       -0.1528
     13 O           3.1264   -5.9782   -2.5422 O.2     1  UNL1       -0.1528
     14 C           0.6921   -6.0576   -3.3206 C.ar    1  UNL1        0.1055
     15 C           0.4494   -7.1095   -2.4571 C.ar    1  UNL1       -0.0348
     16 C          -0.7201   -7.8381   -2.5670 C.ar    1  UNL1       -0.0483
     17 C          -1.6472   -7.5147   -3.5401 C.ar    1  UNL1        0.0549
     18 C          -2.9219   -8.3094   -3.6602 C.3     1  UNL1        0.4174
     19 F          -3.9102   -7.7298   -2.8573 F       1  UNL1       -0.1659
     20 F          -3.3462   -8.3116   -4.9933 F       1  UNL1       -0.1659
     21 F          -2.6929   -9.6244   -3.2415 F       1  UNL1       -0.1659
     22 C          -1.4051   -6.4620   -4.4027 C.ar    1  UNL1       -0.0483
     23 C          -0.2373   -5.7309   -4.2903 C.ar    1  UNL1       -0.0348
     24 C           1.3886   -2.5467   -2.4992 C.3     1  UNL1        0.0282
     25 H           1.0047    1.8421    0.0024 H       1  UNL1        0.0777
     26 H          -0.5450    1.8259   -0.8730 H       1  UNL1        0.0777
     27 H          -0.5280    1.8163    0.9069 H       1  UNL1        0.0777
     28 H           0.1625   -0.1167   -2.0897 H       1  UNL1        0.0817
     29 H           1.7123   -0.1005   -1.2143 H       1  UNL1        0.0817
     30 H           2.5166   -1.9067    0.0177 H       1  UNL1        0.0283
     31 H           1.1139   -2.6757    0.8303 H       1  UNL1        0.0283
     32 H           3.1278   -4.1144   -0.4410 H       1  UNL1        0.0444
     33 H           1.4583   -4.7157   -0.2413 H       1  UNL1        0.0444
     34 H           1.1737   -7.3622   -1.6969 H       1  UNL1        0.0637
     35 H          -0.9094   -8.6604   -1.8928 H       1  UNL1        0.0624
     36 H          -2.1295   -6.2090   -5.1627 H       1  UNL1        0.0624
     37 H          -0.0481   -4.9084   -4.9642 H       1  UNL1        0.0637
     38 H           0.6631   -2.6235   -3.3090 H       1  UNL1        0.0448
     39 H           2.2163   -1.9000   -2.7903 H       1  UNL1        0.0448
@<TRIPOS>UNITY_ATOM_ATTR
2 1
charge 1
@<TRIPOS>BOND
     1     1     2    1
     2     1    25    1
     3     1    26    1
     4     1    27    1
     5     2     3    1
     6     2     4    1
     7     2     5    1
     8     5     6    1
     9     5    28    1
    10     5    29    1
    11     6     7    1
    12     6    24    1
    13     6     8    1
    14     8     9    1
    15     8    30    1
    16     8    31    1
    17     9    10    1
    18     9    32    1
    19     9    33    1
    20    11    10    1
    21    10    24    1
    22    11    12    2
    23    11    13    2
    24    11    14    1
    25    14    23   ar
    26    14    15   ar
    27    15    16   ar
    28    15    34    1
    29    16    17   ar
    30    16    35    1
    31    17    18    1
    32    17    22   ar
    33    18    19    1
    34    18    20    1
    35    18    21    1
    36    22    23   ar
    37    22    36    1
    38    23    37    1
    39    24    38    1
    40    24    39    1
