@<TRIPOS>MOLECULE
ZINC000028207332
 46 46 0 0 0
SMALL
GASTEIGER

@<TRIPOS>ATOM
      1 C          -0.0187    1.5258    0.0104 C.3     1  UNL1       -0.0652
      2 C           0.0021   -0.0041    0.0020 C.3     1  UNL1       -0.0542
      3 C           0.7182   -0.4975   -1.2568 C.3     1  UNL1       -0.0350
      4 C           0.7390   -2.0273   -1.2652 C.3     1  UNL1        0.0204
      5 H          -0.2789   -2.4050   -1.1679 H       1  UNL1        0.0495
      6 C           1.3429   -2.5219   -2.5810 C.3     1  UNL1       -0.0466
      7 N           1.5485   -2.5109   -0.1440 N.am    1  UNL1       -0.3099
      8 C           1.3281   -3.7388    0.3660 C.2     1  UNL1        0.2509
      9 O           0.4596   -4.4434   -0.1031 O.2     1  UNL1       -0.2721
     10 C           2.1609   -4.2362    1.5193 C.3     1  UNL1        0.1651
     11 O           1.7399   -5.5540    1.8774 O.3     1  UNL1       -0.4828
     12 C           2.3939   -6.1521    2.9076 C.ar    1  UNL1        0.1213
     13 C           3.4160   -5.4822    3.5642 C.ar    1  UNL1       -0.0181
     14 C           4.0790   -6.0921    4.6115 C.ar    1  UNL1       -0.0319
     15 C           3.7251   -7.3695    5.0051 C.ar    1  UNL1        0.1057
     16 S           4.5731   -8.1449    6.3408 S.O2    1  UNL1        0.0604
     17 O           4.4118   -9.5451    6.1597 O.2     1  UNL1       -0.1529
     18 O           5.8432   -7.5140    6.4300 O.2     1  UNL1       -0.1529
     19 N           3.7593   -7.7563    7.7297 N.3     1  UNL1       -0.1827
     20 C           2.6727   -8.6153    8.2068 C.3     1  UNL1        0.0086
     21 C           4.1259   -6.5534    8.4813 C.3     1  UNL1        0.0086
     22 C           2.7065   -8.0391    4.3526 C.ar    1  UNL1       -0.0319
     23 C           2.0369   -7.4315    3.3081 C.ar    1  UNL1       -0.0181
     24 H           1.0039    1.9031    0.0027 H       1  UNL1        0.0230
     25 H          -0.5459    1.8868   -0.8726 H       1  UNL1        0.0230
     26 H          -0.5289    1.8773    0.9072 H       1  UNL1        0.0230
     27 H           0.5293   -0.3651    0.8851 H       1  UNL1        0.0263
     28 H          -1.0205   -0.3814    0.0098 H       1  UNL1        0.0263
     29 H           0.1910   -0.1364   -2.1398 H       1  UNL1        0.0283
     30 H           1.7408   -0.1202   -1.2645 H       1  UNL1        0.0283
     31 H           2.3608   -2.1442   -2.6783 H       1  UNL1        0.0247
     32 H           1.3577   -3.6118   -2.5870 H       1  UNL1        0.0247
     33 H           0.7406   -2.1622   -3.4152 H       1  UNL1        0.0247
     34 H           2.2431   -1.9473    0.2312 H       1  UNL1        0.1491
     35 H           3.2108   -4.2570    1.2271 H       1  UNL1        0.0795
     36 H           2.0345   -3.5700    2.3727 H       1  UNL1        0.0795
     37 H           3.6934   -4.4847    3.2567 H       1  UNL1        0.0655
     38 H           4.8748   -5.5710    5.1229 H       1  UNL1        0.0638
     39 H           3.0776   -9.3766    8.8736 H       1  UNL1        0.0408
     40 H           1.9422   -8.0118    8.7454 H       1  UNL1        0.0408
     41 H           2.1900   -9.0968    7.3563 H       1  UNL1        0.0408
     42 H           4.9485   -6.0464    7.9768 H       1  UNL1        0.0408
     43 H           3.2671   -5.8846    8.5381 H       1  UNL1        0.0408
     44 H           4.4350   -6.8342    9.4881 H       1  UNL1        0.0408
     45 H           2.4316   -9.0366    4.6621 H       1  UNL1        0.0638
     46 H           1.2413   -7.9550    2.7988 H       1  UNL1        0.0655
@<TRIPOS>BOND
     1     1     2    1
     2     1    24    1
     3     1    25    1
     4     1    26    1
     5     2     3    1
     6     2    27    1
     7     2    28    1
     8     3     4    1
     9     3    29    1
    10     3    30    1
    11     4     5    1
    12     4     6    1
    13     4     7    1
    14     6    31    1
    15     6    32    1
    16     6    33    1
    17     7     8   am
    18     7    34    1
    19     8     9    2
    20     8    10    1
    21    10    11    1
    22    10    35    1
    23    10    36    1
    24    11    12    1
    25    12    23   ar
    26    12    13   ar
    27    13    14   ar
    28    13    37    1
    29    14    15   ar
    30    14    38    1
    31    15    16    1
    32    15    22   ar
    33    16    17    2
    34    16    18    2
    35    16    19    1
    36    19    20    1
    37    19    21    1
    38    20    39    1
    39    20    40    1
    40    20    41    1
    41    21    42    1
    42    21    43    1
    43    21    44    1
    44    22    23   ar
    45    22    45    1
    46    23    46    1
