@<TRIPOS>MOLECULE
ZINC000012883511
 39 40 0 0 0
SMALL
GASTEIGER

@<TRIPOS>ATOM
      1 C          -0.0187    1.5258    0.0104 C.3     1  UNL1       -0.0612
      2 C           0.0021   -0.0041    0.0020 C.3     1  UNL1       -0.0292
      3 H           0.5122   -0.3561   -0.8946 H       1  UNL1        0.0311
      4 C          -1.4334   -0.5345    0.0145 C.3     1  UNL1       -0.0454
      5 C          -1.4142   -2.0642   -0.0270 C.3     1  UNL1       -0.0292
      6 H          -0.8906   -2.3972   -0.9231 H       1  UNL1        0.0311
      7 C          -2.8500   -2.5925   -0.0485 C.3     1  UNL1       -0.0612
      8 C          -0.6916   -2.5957    1.2148 C.3     1  UNL1        0.0231
      9 N           0.6392   -1.9773    1.2884 N.3     1  UNL1       -0.1761
     10 S           1.9987   -2.9138    1.4188 S.O2    1  UNL1        0.0609
     11 O           2.9971   -2.0919    2.0077 O.2     1  UNL1       -0.1528
     12 O           1.5812   -4.1514    1.9786 O.2     1  UNL1       -0.1528
     13 C           2.5472   -3.2678   -0.2178 C.ar    1  UNL1        0.1060
     14 C           2.0799   -4.3899   -0.8757 C.ar    1  UNL1       -0.0353
     15 C           2.5102   -4.6676   -2.1599 C.ar    1  UNL1       -0.0594
     16 C           3.4074   -3.8229   -2.7859 C.ar    1  UNL1       -0.0500
     17 C           3.8741   -2.7000   -2.1282 C.ar    1  UNL1        0.0567
     18 C           4.8527   -1.7793   -2.8106 C.3     1  UNL1        0.4175
     19 F           5.1359   -2.2662   -4.0912 F       1  UNL1       -0.1659
     20 F           4.2969   -0.4994   -2.9106 F       1  UNL1       -0.1659
     21 F           6.0339   -1.7177   -2.0634 F       1  UNL1       -0.1659
     22 C           3.4406   -2.4201   -0.8460 C.ar    1  UNL1       -0.0237
     23 C           0.7415   -0.5122    1.2437 C.3     1  UNL1        0.0231
     24 H           1.0039    1.9031    0.0027 H       1  UNL1        0.0233
     25 H          -0.5459    1.8868   -0.8726 H       1  UNL1        0.0233
     26 H          -0.5289    1.8773    0.9072 H       1  UNL1        0.0233
     27 H          -1.9355   -0.2021    0.9231 H       1  UNL1        0.0271
     28 H          -1.9686   -0.1542   -0.8556 H       1  UNL1        0.0271
     29 H          -3.3641   -2.2117   -0.9309 H       1  UNL1        0.0233
     30 H          -2.8358   -3.6820   -0.0780 H       1  UNL1        0.0233
     31 H          -3.3728   -2.2602    0.8483 H       1  UNL1        0.0233
     32 H          -1.2630   -2.3406    2.1072 H       1  UNL1        0.0446
     33 H          -0.5879   -3.6783    1.1418 H       1  UNL1        0.0446
     34 H           1.3788   -5.0499   -0.3865 H       1  UNL1        0.0637
     35 H           2.1456   -5.5448   -2.6737 H       1  UNL1        0.0618
     36 H           3.7441   -4.0403   -3.7888 H       1  UNL1        0.0623
     37 H           3.8052   -1.5429   -0.3321 H       1  UNL1        0.0642
     38 H           1.7904   -0.2207    1.1903 H       1  UNL1        0.0446
     39 H           0.2870   -0.0867    2.1384 H       1  UNL1        0.0446
@<TRIPOS>BOND
     1     1     2    1
     2     1    24    1
     3     1    25    1
     4     1    26    1
     5     2     3    1
     6     2    23    1
     7     2     4    1
     8     4     5    1
     9     4    27    1
    10     4    28    1
    11     5     6    1
    12     5     7    1
    13     5     8    1
    14     7    29    1
    15     7    30    1
    16     7    31    1
    17     8     9    1
    18     8    32    1
    19     8    33    1
    20    10     9    1
    21     9    23    1
    22    10    11    2
    23    10    12    2
    24    10    13    1
    25    13    22   ar
    26    13    14   ar
    27    14    15   ar
    28    14    34    1
    29    15    16   ar
    30    15    35    1
    31    16    17   ar
    32    16    36    1
    33    17    18    1
    34    17    22   ar
    35    18    19    1
    36    18    20    1
    37    18    21    1
    38    22    37    1
    39    23    38    1
    40    23    39    1
