@<TRIPOS>MOLECULE
ZINC000002810325
 53 54 0 0 0
SMALL
GASTEIGER

@<TRIPOS>ATOM
      1 C          -0.0173    1.4248    0.0099 C.3     1  UNL1        0.0364
      2 O           0.0021   -0.0041    0.0020 O.3     1  UNL1       -0.3829
      3 C          -1.2953   -0.6030    0.0112 C.3     1  UNL1        0.0487
      4 C          -1.1538   -2.1264    0.0017 C.3     1  UNL1       -0.0139
      5 C          -2.5429   -2.7677    0.0115 C.3     1  UNL1        0.0137
      6 N          -2.4075   -4.2264    0.0023 N.am    1  UNL1       -0.3141
      7 C          -3.5073   -5.0054    0.0087 C.2     1  UNL1        0.2288
      8 O          -4.6092   -4.4987    0.0219 O.2     1  UNL1       -0.2743
      9 C          -3.3680   -6.5059   -0.0007 C.3     1  UNL1        0.0971
     10 N          -4.6980   -7.1199    0.0087 N.3     1  UNL1       -0.1635
     11 C          -5.4215   -7.3197   -1.2495 C.3     1  UNL1        0.0460
     12 C          -4.9853   -8.6176   -1.8791 C.ar    1  UNL1       -0.0316
     13 C          -3.9149   -8.6362   -2.7536 C.ar    1  UNL1       -0.0570
     14 C          -3.5148   -9.8266   -3.3311 C.ar    1  UNL1       -0.0585
     15 C          -4.1848  -10.9986   -3.0337 C.ar    1  UNL1       -0.0504
     16 C          -3.7490  -12.2964   -3.6637 C.3     1  UNL1       -0.0397
     17 C          -5.2544  -10.9803   -2.1581 C.ar    1  UNL1       -0.0585
     18 C          -5.6520   -9.7904   -1.5777 C.ar    1  UNL1       -0.0570
     19 S          -5.3838   -7.5881    1.4415 S.O2    1  UNL1        0.0616
     20 O          -6.2213   -8.6963    1.1423 O.2     1  UNL1       -0.1528
     21 O          -4.3286   -7.6455    2.3915 O.2     1  UNL1       -0.1528
     22 C          -6.4497   -6.2845    1.9601 C.ar    1  UNL1        0.1055
     23 C          -5.9599   -5.2669    2.7572 C.ar    1  UNL1       -0.0353
     24 C          -6.7962   -4.2442    3.1641 C.ar    1  UNL1       -0.0599
     25 C          -8.1222   -4.2388    2.7735 C.ar    1  UNL1       -0.0616
     26 C          -8.6118   -5.2560    1.9756 C.ar    1  UNL1       -0.0599
     27 C          -7.7745   -6.2764    1.5652 C.ar    1  UNL1       -0.0353
     28 H           1.0053    1.8021    0.0021 H       1  UNL1        0.0523
     29 H          -0.5445    1.7859   -0.8732 H       1  UNL1        0.0523
     30 H          -0.5275    1.7763    0.9067 H       1  UNL1        0.0523
     31 H          -1.8320   -0.2936    0.9080 H       1  UNL1        0.0560
     32 H          -1.8490   -0.2840   -0.8718 H       1  UNL1        0.0560
     33 H          -0.6171   -2.4359   -0.8952 H       1  UNL1        0.0302
     34 H          -0.6001   -2.4454    0.8847 H       1  UNL1        0.0302
     35 H          -3.0796   -2.4582    0.9083 H       1  UNL1        0.0463
     36 H          -3.0966   -2.4487   -0.8716 H       1  UNL1        0.0463
     37 H          -1.5262   -4.6316   -0.0082 H       1  UNL1        0.1487
     38 H          -2.8312   -6.8153   -0.8975 H       1  UNL1        0.0539
     39 H          -2.8143   -6.8249    0.8823 H       1  UNL1        0.0539
     40 H          -6.4927   -7.3541   -1.0511 H       1  UNL1        0.0493
     41 H          -5.2040   -6.4953   -1.9285 H       1  UNL1        0.0493
     42 H          -3.3915   -7.7205   -2.9859 H       1  UNL1        0.0621
     43 H          -2.6790   -9.8411   -4.0149 H       1  UNL1        0.0620
     44 H          -3.0035  -12.7759   -3.0293 H       1  UNL1        0.0278
     45 H          -4.6108  -12.9548   -3.7729 H       1  UNL1        0.0278
     46 H          -3.3174  -12.0972   -4.6446 H       1  UNL1        0.0278
     47 H          -5.7776  -11.8960   -1.9255 H       1  UNL1        0.0620
     48 H          -6.4876   -9.7761   -0.8936 H       1  UNL1        0.0621
     49 H          -4.9240   -5.2710    3.0624 H       1  UNL1        0.0637
     50 H          -6.4137   -3.4495    3.7874 H       1  UNL1        0.0618
     51 H          -8.7758   -3.4402    3.0919 H       1  UNL1        0.0618
     52 H          -9.6479   -5.2520    1.6707 H       1  UNL1        0.0618
     53 H          -8.1570   -7.0711    0.9418 H       1  UNL1        0.0637
@<TRIPOS>BOND
     1     1     2    1
     2     1    28    1
     3     1    29    1
     4     1    30    1
     5     2     3    1
     6     3     4    1
     7     3    31    1
     8     3    32    1
     9     4     5    1
    10     4    33    1
    11     4    34    1
    12     5     6    1
    13     5    35    1
    14     5    36    1
    15     6     7   am
    16     6    37    1
    17     7     8    2
    18     7     9    1
    19     9    10    1
    20     9    38    1
    21     9    39    1
    22    10    11    1
    23    19    10    1
    24    11    12    1
    25    11    40    1
    26    11    41    1
    27    12    18   ar
    28    12    13   ar
    29    13    14   ar
    30    13    42    1
    31    14    15   ar
    32    14    43    1
    33    15    16    1
    34    15    17   ar
    35    16    44    1
    36    16    45    1
    37    16    46    1
    38    17    18   ar
    39    17    47    1
    40    18    48    1
    41    19    20    2
    42    19    21    2
    43    19    22    1
    44    22    27   ar
    45    22    23   ar
    46    23    24   ar
    47    23    49    1
    48    24    25   ar
    49    24    50    1
    50    25    26   ar
    51    25    51    1
    52    26    27   ar
    53    26    52    1
    54    27    53    1
