@<TRIPOS>MOLECULE
ZINC000013042472
 54 56 0 0 0
SMALL
GASTEIGER

@<TRIPOS>ATOM
      1 C          -0.0184    1.5028    0.0103 C.3     1  UNL1       -0.0396
      2 C           0.0021   -0.0041    0.0020 C.ar    1  UNL1       -0.0467
      3 C           0.0058   -0.6882   -1.1995 C.ar    1  UNL1       -0.0557
      4 C           0.0245   -2.0707   -1.2105 C.ar    1  UNL1       -0.0467
      5 C           0.0280   -2.8132   -2.5219 C.3     1  UNL1       -0.0396
      6 C           0.0405   -2.7719   -0.0204 C.ar    1  UNL1       -0.0170
      7 C           0.0373   -2.0878    1.1866 C.ar    1  UNL1        0.1217
      8 O           0.0535   -2.7753    2.3587 O.3     1  UNL1       -0.4828
      9 C           0.0490   -2.0054    3.5625 C.3     1  UNL1        0.1653
     10 C           0.0687   -2.9315    4.7512 C.2     1  UNL1        0.2533
     11 O           0.0850   -4.1326    4.5839 O.2     1  UNL1       -0.2719
     12 N           0.0683   -2.4250    6.0002 N.am    1  UNL1       -0.2961
     13 C           0.0425   -0.9718    6.2180 C.3     1  UNL1        0.0292
     14 C          -1.1517   -0.6324    7.1185 C.3     1  UNL1        0.0363
     15 N          -1.1269   -1.5234    8.2870 N.3     1  UNL1       -0.1736
     16 S          -1.1286   -0.9011    9.8216 S.O2    1  UNL1        0.0609
     17 O          -0.5595   -1.8978   10.6594 O.2     1  UNL1       -0.1528
     18 O          -0.6099    0.4180    9.7203 O.2     1  UNL1       -0.1528
     19 C          -2.8118   -0.7371   10.3162 C.ar    1  UNL1        0.1055
     20 C          -3.4979    0.4342   10.0553 C.ar    1  UNL1       -0.0348
     21 C          -4.8184    0.5629   10.4433 C.ar    1  UNL1       -0.0483
     22 C          -5.4530   -0.4801   11.0917 C.ar    1  UNL1        0.0549
     23 C          -6.8925   -0.3397   11.5151 C.3     1  UNL1        0.4174
     24 F          -7.7273   -0.7822   10.4834 F       1  UNL1       -0.1659
     25 F          -7.1188   -1.1098   12.6609 F       1  UNL1       -0.1659
     26 F          -7.1677    1.0033   11.7940 F       1  UNL1       -0.1659
     27 C          -4.7674   -1.6520   11.3513 C.ar    1  UNL1       -0.0483
     28 C          -3.4480   -1.7820   10.9600 C.ar    1  UNL1       -0.0348
     29 C          -1.1012   -2.9766    8.0692 C.3     1  UNL1        0.0363
     30 C           0.0873   -3.3161    7.1687 C.3     1  UNL1        0.0292
     31 C           0.0229   -0.7006    1.1948 C.ar    1  UNL1       -0.0170
     32 H           1.0042    1.8801    0.0026 H       1  UNL1        0.0278
     33 H          -0.5455    1.8639   -0.8728 H       1  UNL1        0.0278
     34 H          -0.5286    1.8543    0.9071 H       1  UNL1        0.0278
     35 H          -0.0063   -0.1418   -2.1310 H       1  UNL1        0.0623
     36 H           1.0564   -2.9783   -2.8432 H       1  UNL1        0.0278
     37 H          -0.4722   -3.7736   -2.3970 H       1  UNL1        0.0278
     38 H          -0.4977   -2.2248   -3.2739 H       1  UNL1        0.0278
     39 H           0.0551   -3.8518   -0.0295 H       1  UNL1        0.0657
     40 H           0.9301   -1.3641    3.5870 H       1  UNL1        0.0795
     41 H          -0.8497   -1.3895    3.5966 H       1  UNL1        0.0795
     42 H           0.9670   -0.6581    6.7027 H       1  UNL1        0.0478
     43 H          -0.0637   -0.4604    5.2613 H       1  UNL1        0.0478
     44 H          -1.0788    0.4043    7.4474 H       1  UNL1        0.0459
     45 H          -2.0798   -0.7792    6.5662 H       1  UNL1        0.0459
     46 H          -3.0021    1.2491    9.5487 H       1  UNL1        0.0637
     47 H          -5.3542    1.4783   10.2401 H       1  UNL1        0.0624
     48 H          -5.2633   -2.4669   11.8576 H       1  UNL1        0.0624
     49 H          -2.9123   -2.6976   11.1628 H       1  UNL1        0.0637
     50 H          -0.9950   -3.4880    9.0259 H       1  UNL1        0.0459
     51 H          -2.0257   -3.2903    7.5845 H       1  UNL1        0.0459
     52 H           0.0133   -4.3530    6.8407 H       1  UNL1        0.0478
     53 H           1.0168   -3.1694    7.7189 H       1  UNL1        0.0478
     54 H           0.0207   -0.1657    2.1331 H       1  UNL1        0.0657
@<TRIPOS>BOND
     1     1     2    1
     2     1    32    1
     3     1    33    1
     4     1    34    1
     5     2    31   ar
     6     2     3   ar
     7     3     4   ar
     8     3    35    1
     9     4     5    1
    10     4     6   ar
    11     5    36    1
    12     5    37    1
    13     5    38    1
    14     6     7   ar
    15     6    39    1
    16     7     8    1
    17     7    31   ar
    18     8     9    1
    19     9    10    1
    20     9    40    1
    21     9    41    1
    22    10    11    2
    23    10    12   am
    24    12    30    1
    25    12    13    1
    26    13    14    1
    27    13    42    1
    28    13    43    1
    29    14    15    1
    30    14    44    1
    31    14    45    1
    32    16    15    1
    33    15    29    1
    34    16    17    2
    35    16    18    2
    36    16    19    1
    37    19    28   ar
    38    19    20   ar
    39    20    21   ar
    40    20    46    1
    41    21    22   ar
    42    21    47    1
    43    22    23    1
    44    22    27   ar
    45    23    24    1
    46    23    25    1
    47    23    26    1
    48    27    28   ar
    49    27    48    1
    50    28    49    1
    51    29    30    1
    52    29    50    1
    53    29    51    1
    54    30    52    1
    55    30    53    1
    56    31    54    1
