@<TRIPOS>MOLECULE
ZINC000002813421
 53 54 0 0 0
SMALL
GASTEIGER

@<TRIPOS>ATOM
      1 C          -0.0173    1.4248    0.0099 C.3     1  UNL1        0.0364
      2 O           0.0021   -0.0041    0.0020 O.3     1  UNL1       -0.3829
      3 C           0.6518   -0.5703   -1.1379 C.3     1  UNL1        0.0487
      4 C           0.6131   -2.0967   -1.0411 C.3     1  UNL1       -0.0139
      5 C           1.3087   -2.7029   -2.2615 C.3     1  UNL1        0.0137
      6 N           1.2717   -4.1645   -2.1688 N.am    1  UNL1       -0.3141
      7 C           1.8279   -4.9157   -3.1398 C.2     1  UNL1        0.2288
      8 O           2.3592   -4.3816   -4.0903 O.2     1  UNL1       -0.2743
      9 C           1.7898   -6.4192   -3.0444 C.3     1  UNL1        0.0971
     10 N           2.4559   -6.9996   -4.2130 N.3     1  UNL1       -0.1635
     11 C           3.9101   -7.1769   -4.2144 C.3     1  UNL1        0.0460
     12 C           4.2576   -8.4830   -3.5479 C.ar    1  UNL1       -0.0316
     13 C           4.4803   -8.5252   -2.1842 C.ar    1  UNL1       -0.0562
     14 C           4.7986   -9.7230   -1.5724 C.ar    1  UNL1       -0.0475
     15 C           4.8944  -10.8798   -2.3249 C.ar    1  UNL1        0.0179
     16 BR          5.3292  -12.5190   -1.4885 Br      1  UNL1       -0.0503
     17 C           4.6714  -10.8371   -3.6895 C.ar    1  UNL1       -0.0475
     18 C           4.3480   -9.6397   -4.2995 C.ar    1  UNL1       -0.0562
     19 S           1.5650   -7.4555   -5.5324 S.O2    1  UNL1        0.0616
     20 O           2.3330   -8.4366   -6.2157 O.2     1  UNL1       -0.1528
     21 O           0.2444   -7.6903   -5.0632 O.2     1  UNL1       -0.1528
     22 C           1.4712   -6.0611   -6.6055 C.ar    1  UNL1        0.1055
     23 C           0.4372   -5.1536   -6.4708 C.ar    1  UNL1       -0.0351
     24 C           0.3636   -4.0596   -7.3126 C.ar    1  UNL1       -0.0570
     25 C           1.3243   -3.8729   -8.2889 C.ar    1  UNL1       -0.0503
     26 C           1.2438   -2.6805   -9.2069 C.3     1  UNL1       -0.0397
     27 C           2.3591   -4.7796   -8.4227 C.ar    1  UNL1       -0.0570
     28 C           2.4348   -5.8715   -7.5784 C.ar    1  UNL1       -0.0351
     29 H           1.0053    1.8021    0.0021 H       1  UNL1        0.0523
     30 H          -0.5445    1.7859   -0.8732 H       1  UNL1        0.0523
     31 H          -0.5275    1.7763    0.9067 H       1  UNL1        0.0523
     32 H           0.1385   -0.2506   -2.0447 H       1  UNL1        0.0560
     33 H           1.6883   -0.2344   -1.1694 H       1  UNL1        0.0560
     34 H           1.1264   -2.4164   -0.1342 H       1  UNL1        0.0302
     35 H          -0.4234   -2.4326   -1.0095 H       1  UNL1        0.0302
     36 H           0.7954   -2.3833   -3.1684 H       1  UNL1        0.0463
     37 H           2.3452   -2.3671   -2.2930 H       1  UNL1        0.0463
     38 H           0.8468   -4.5917   -1.4086 H       1  UNL1        0.1487
     39 H           2.3031   -6.7389   -2.1376 H       1  UNL1        0.0539
     40 H           0.7533   -6.7551   -3.0129 H       1  UNL1        0.0539
     41 H           4.2742   -7.1850   -5.2418 H       1  UNL1        0.0493
     42 H           4.3767   -6.3558   -3.6701 H       1  UNL1        0.0493
     43 H           4.4059   -7.6220   -1.5968 H       1  UNL1        0.0621
     44 H           4.9729   -9.7558   -0.5071 H       1  UNL1        0.0629
     45 H           4.7460  -11.7400   -4.2774 H       1  UNL1        0.0629
     46 H           4.1740   -9.6063   -5.3649 H       1  UNL1        0.0621
     47 H          -0.3134   -5.2995   -5.7080 H       1  UNL1        0.0637
     48 H          -0.4447   -3.3510   -7.2078 H       1  UNL1        0.0621
     49 H           1.7898   -1.8459   -8.7672 H       1  UNL1        0.0278
     50 H           1.6833   -2.9344  -10.1716 H       1  UNL1        0.0278
     51 H           0.2000   -2.3989   -9.3461 H       1  UNL1        0.0278
     52 H           3.1098   -4.6335   -9.1852 H       1  UNL1        0.0621
     53 H           3.2432   -6.5800   -7.6829 H       1  UNL1        0.0637
@<TRIPOS>BOND
     1     1     2    1
     2     1    29    1
     3     1    30    1
     4     1    31    1
     5     2     3    1
     6     3     4    1
     7     3    32    1
     8     3    33    1
     9     4     5    1
    10     4    34    1
    11     4    35    1
    12     5     6    1
    13     5    36    1
    14     5    37    1
    15     6     7   am
    16     6    38    1
    17     7     8    2
    18     7     9    1
    19     9    10    1
    20     9    39    1
    21     9    40    1
    22    10    11    1
    23    19    10    1
    24    11    12    1
    25    11    41    1
    26    11    42    1
    27    12    18   ar
    28    12    13   ar
    29    13    14   ar
    30    13    43    1
    31    14    15   ar
    32    14    44    1
    33    15    16    1
    34    15    17   ar
    35    17    18   ar
    36    17    45    1
    37    18    46    1
    38    19    20    2
    39    19    21    2
    40    19    22    1
    41    22    28   ar
    42    22    23   ar
    43    23    24   ar
    44    23    47    1
    45    24    25   ar
    46    24    48    1
    47    25    26    1
    48    25    27   ar
    49    26    49    1
    50    26    50    1
    51    26    51    1
    52    27    28   ar
    53    27    52    1
    54    28    53    1
