@<TRIPOS>MOLECULE
ZINC000096245397
 50 53 0 0 0
SMALL
GASTEIGER

@<TRIPOS>ATOM
      1 O           0.0021   -0.0041    0.0020 O.2     1  UNL1       -0.1528
      2 S          -0.0172    1.4168    0.0098 S.O2    1  UNL1        0.0609
      3 O           1.1617    2.2101    0.0028 O.2     1  UNL1       -0.1528
      4 C          -0.9567    1.9094   -1.3970 C.ar    1  UNL1        0.1055
      5 C          -1.8848    1.0442   -1.9458 C.ar    1  UNL1       -0.0353
      6 C          -2.6219    1.4307   -3.0496 C.ar    1  UNL1       -0.0599
      7 C          -2.4313    2.6825   -3.6042 C.ar    1  UNL1       -0.0616
      8 C          -1.5039    3.5480   -3.0548 C.ar    1  UNL1       -0.0599
      9 C          -0.7699    3.1631   -1.9485 C.ar    1  UNL1       -0.0353
     10 N          -0.8748    1.8654    1.3536 N.3     1  UNL1       -0.1757
     11 C          -0.7772    3.1761    2.0671 C.3     1  UNL1        0.0286
     12 C          -1.6240    2.9988    3.2895 C.3     1  UNL1        0.0224
     13 H          -1.0686    2.4135    4.0224 H       1  UNL1        0.0371
     14 C          -2.4459    4.0221    4.0077 C.3     1  UNL1       -0.0270
     15 N          -3.6135    3.2558    4.5480 N.4     1  UNL1        0.2390
     16 H          -4.4746    3.6930    4.2556 H       1  UNL1        0.2037
     17 C          -3.5471    3.2154    6.0149 C.3     1  UNL1       -0.0059
     18 C          -4.6547    2.3410    6.5440 C.ar    1  UNL1       -0.0029
     19 C          -5.8878    2.8910    6.8403 C.ar    1  UNL1       -0.0530
     20 C          -6.9037    2.0890    7.3256 C.ar    1  UNL1       -0.0497
     21 C          -6.6866    0.7369    7.5142 C.ar    1  UNL1        0.0548
     22 C          -7.7940   -0.1374    8.0437 C.3     1  UNL1        0.4174
     23 F          -8.5396   -0.6447    6.9741 F       1  UNL1       -0.1659
     24 F          -7.2435   -1.1971    8.7725 F       1  UNL1       -0.1659
     25 F          -8.6270    0.6180    8.8761 F       1  UNL1       -0.1659
     26 C          -5.4539    0.1866    7.2166 C.ar    1  UNL1       -0.0497
     27 C          -4.4392    0.9880    6.7277 C.ar    1  UNL1       -0.0530
     28 C          -3.5369    1.8624    3.9954 C.3     1  UNL1       -0.0270
     29 C          -2.7786    2.0870    2.7025 C.3     1  UNL1        0.0224
     30 H          -3.3953    2.5973    1.9626 H       1  UNL1        0.0371
     31 C          -1.8939    1.0345    2.0714 C.3     1  UNL1        0.0286
     32 H          -2.0336    0.0662   -1.5125 H       1  UNL1        0.0637
     33 H          -3.3464    0.7545   -3.4788 H       1  UNL1        0.0618
     34 H          -3.0067    2.9841   -4.4670 H       1  UNL1        0.0618
     35 H          -1.3548    4.5258   -3.4884 H       1  UNL1        0.0618
     36 H          -0.0453    3.8393   -1.5193 H       1  UNL1        0.0637
     37 H           0.2562    3.3817    2.3463 H       1  UNL1        0.0449
     38 H          -1.1712    3.9791    1.4441 H       1  UNL1        0.0449
     39 H          -1.8734    4.4667    4.8217 H       1  UNL1        0.0818
     40 H          -2.7845    4.7924    3.3148 H       1  UNL1        0.0818
     41 H          -2.5842    2.8089    6.3240 H       1  UNL1        0.0867
     42 H          -3.6598    4.2244    6.4117 H       1  UNL1        0.0867
     43 H          -6.0574    3.9474    6.6929 H       1  UNL1        0.0622
     44 H          -7.8669    2.5188    7.5577 H       1  UNL1        0.0623
     45 H          -5.2844   -0.8698    7.3636 H       1  UNL1        0.0623
     46 H          -3.4761    0.5581    6.4952 H       1  UNL1        0.0622
     47 H          -2.9924    1.2057    4.6739 H       1  UNL1        0.0818
     48 H          -4.5335    1.4708    3.7918 H       1  UNL1        0.0818
     49 H          -2.4609    0.4160    1.3756 H       1  UNL1        0.0449
     50 H          -1.4150    0.4205    2.8341 H       1  UNL1        0.0449
@<TRIPOS>UNITY_ATOM_ATTR
15 1
charge 1
@<TRIPOS>BOND
     1     1     2    2
     2     2     3    2
     3     2     4    1
     4     2    10    1
     5     4     9   ar
     6     4     5   ar
     7     5     6   ar
     8     5    32    1
     9     6     7   ar
    10     6    33    1
    11     7     8   ar
    12     7    34    1
    13     8     9   ar
    14     8    35    1
    15     9    36    1
    16    10    31    1
    17    10    11    1
    18    11    12    1
    19    11    37    1
    20    11    38    1
    21    12    13    1
    22    12    29    1
    23    12    14    1
    24    14    15    1
    25    14    39    1
    26    14    40    1
    27    15    16    1
    28    15    17    1
    29    15    28    1
    30    17    18    1
    31    17    41    1
    32    17    42    1
    33    18    27   ar
    34    18    19   ar
    35    19    20   ar
    36    19    43    1
    37    20    21   ar
    38    20    44    1
    39    21    22    1
    40    21    26   ar
    41    22    23    1
    42    22    24    1
    43    22    25    1
    44    26    27   ar
    45    26    45    1
    46    27    46    1
    47    28    29    1
    48    28    47    1
    49    28    48    1
    50    29    30    1
    51    29    31    1
    52    31    49    1
    53    31    50    1
