@<TRIPOS>MOLECULE
ZINC000822662145
 37 38 0 0 0
SMALL
GASTEIGER

@<TRIPOS>ATOM
      1 C           0.1183    1.4078    0.2270 C.3     1  UNL1       -0.0598
      2 C           0.0250   -0.1087    0.0469 C.3     1  UNL1       -0.0082
      3 C           0.6058   -0.4973   -1.3142 C.3     1  UNL1        0.0034
      4 H           0.1031    0.0684   -2.0987 H       1  UNL1        0.0903
      5 N           2.0433   -0.1957   -1.3374 N.4     1  UNL1        0.2368
      6 H           2.1875    0.7732   -1.0955 H       1  UNL1        0.2024
      7 H           2.5211   -0.7835   -0.6709 H       1  UNL1        0.2024
      8 C           2.5750   -0.4488   -2.6832 C.3     1  UNL1        0.0102
      9 C           4.0193   -0.0225   -2.7410 C.ar    1  UNL1        0.0865
     10 C           5.0181   -0.9613   -2.5325 C.ar    1  UNL1       -0.0352
     11 C           6.3452   -0.5651   -2.5865 C.ar    1  UNL1       -0.0576
     12 C           6.6276    0.7662   -2.8492 C.ar    1  UNL1       -0.0291
     13 CA          5.5728    1.6553   -3.0487 C.ar    1  UNL1        0.1522
     14 C           5.8570    3.0797   -3.3301 C.2     1  UNL1        0.4044
     15 O           7.0132    3.4727   -3.3868 O.co2   1  UNL1       -0.2389
     16 OXT         4.9357    3.8637   -3.5059 O.co2   1  UNL1       -0.2389
     17 N           4.3149    1.2332   -2.9937 N.ar    1  UNL1       -0.2396
     18 C           0.3981   -1.9718   -1.5465 C.ar    1  UNL1        0.0030
     19 C           1.2377   -2.9075   -0.9617 C.ar    1  UNL1       -0.0351
     20 C           1.0164   -4.2512   -1.1975 C.ar    1  UNL1        0.0280
     21 N           0.0218   -4.6460   -1.9681 N.ar    1  UNL1       -0.2632
     22 C          -0.7962   -3.7844   -2.5404 C.ar    1  UNL1        0.0280
     23 C          -0.6405   -2.4251   -2.3453 C.ar    1  UNL1       -0.0351
     24 H           1.1662    1.7050    0.2685 H       1  UNL1        0.0232
     25 H          -0.3670    1.9041   -0.6135 H       1  UNL1        0.0232
     26 H          -0.3778    1.6948    1.1541 H       1  UNL1        0.0232
     27 H           0.5890   -0.6038    0.8374 H       1  UNL1        0.0321
     28 H          -1.0192   -0.4170    0.0978 H       1  UNL1        0.0321
     29 H           2.5009   -1.5126   -2.9090 H       1  UNL1        0.0882
     30 H           1.9991    0.1188   -3.4141 H       1  UNL1        0.0882
     31 H           4.7645   -1.9913   -2.3296 H       1  UNL1        0.0637
     32 H           7.1412   -1.2775   -2.4272 H       1  UNL1        0.0619
     33 H           7.6503    1.1099   -2.8982 H       1  UNL1        0.0641
     34 H           2.0544   -2.5904   -0.3303 H       1  UNL1        0.0637
     35 H           1.6659   -4.9864   -0.7458 H       1  UNL1        0.0829
     36 H          -1.5996   -4.1454   -3.1654 H       1  UNL1        0.0829
     37 H          -1.3139   -1.7244   -2.8164 H       1  UNL1        0.0637
@<TRIPOS>UNITY_ATOM_ATTR
5 1
charge 1
@<TRIPOS>BOND
     1     1     2    1
     2     1    24    1
     3     1    25    1
     4     1    26    1
     5     2     3    1
     6     2    27    1
     7     2    28    1
     8     3     4    1
     9     3     5    1
    10     3    18    1
    11     5     6    1
    12     5     7    1
    13     5     8    1
    14     8     9    1
    15     8    29    1
    16     8    30    1
    17     9    17   ar
    18     9    10   ar
    19    10    11   ar
    20    10    31    1
    21    11    12   ar
    22    11    32    1
    23    12    13   ar
    24    12    33    1
    25    13    14    1
    26    13    17   ar
    27    14    15   ar
    28    14    16   ar
    29    18    23   ar
    30    18    19   ar
    31    19    20   ar
    32    19    34    1
    33    20    21   ar
    34    20    35    1
    35    21    22   ar
    36    22    23   ar
    37    22    36    1
    38    23    37    1
