@<TRIPOS>MOLECULE
ZINC000012917015
 63 66 0 0 0
SMALL
GASTEIGER

@<TRIPOS>ATOM
      1 O           2.0346    3.3288    1.7342 O.2     1  UNL1       -0.1528
      2 S           1.5432    3.4477    3.0622 S.O2    1  UNL1        0.0609
      3 O           2.1375    2.7897    4.1727 O.2     1  UNL1       -0.1528
      4 C           1.5480    5.1682    3.4423 C.ar    1  UNL1        0.1055
      5 C           1.4949    6.1012    2.4237 C.ar    1  UNL1       -0.0348
      6 C           1.4987    7.4510    2.7219 C.ar    1  UNL1       -0.0483
      7 C           1.5552    7.8678    4.0387 C.ar    1  UNL1        0.0549
      8 C           1.5598    9.3393    4.3638 C.3     1  UNL1        0.4174
      9 F           0.2436    9.7857    4.5237 F       1  UNL1       -0.1659
     10 F           2.2719    9.5528    5.5489 F       1  UNL1       -0.1659
     11 F           2.1682   10.0454    3.3205 F       1  UNL1       -0.1659
     12 C           1.6069    6.9347    5.0574 C.ar    1  UNL1       -0.0483
     13 C           1.5992    5.5849    4.7594 C.ar    1  UNL1       -0.0348
     14 N          -0.0386    2.9592    3.0210 N.3     1  UNL1       -0.1741
     15 C          -0.7095    2.4700    4.2351 C.3     1  UNL1        0.0333
     16 C          -2.0288    3.2313    4.4025 C.3     1  UNL1        0.0135
     17 N          -2.8169    3.1162    3.1681 N.3     1  UNL1       -0.2973
     18 C          -4.1596    3.6851    3.3458 C.3     1  UNL1        0.0272
     19 C          -5.0188    2.7187    4.1635 C.3     1  UNL1        0.0911
     20 H          -4.5318    2.5181    5.1179 H       1  UNL1        0.0629
     21 O          -5.1767    1.4949    3.4428 O.3     1  UNL1       -0.3882
     22 C          -6.3925    3.3442    4.4135 C.3     1  UNL1        0.0756
     23 O          -7.1535    2.4942    5.2739 O.3     1  UNL1       -0.3694
     24 C          -8.4949    2.9368    5.4902 C.3     1  UNL1        0.0840
     25 H          -8.5221    4.0262    5.4659 H       1  UNL1        0.0646
     26 C          -9.3917    2.3859    4.3833 C.3     1  UNL1       -0.0221
     27 C         -10.8504    2.6863    4.7475 C.3     1  UNL1       -0.0464
     28 C         -11.2387    1.8143    5.9398 C.3     1  UNL1       -0.0272
     29 C         -10.2273    1.9513    7.0476 C.ar    1  UNL1       -0.0417
     30 C         -10.6034    1.5435    8.3206 C.ar    1  UNL1       -0.0582
     31 C          -9.7204    1.6381    9.3766 C.ar    1  UNL1       -0.0615
     32 C          -8.4505    2.1420    9.1664 C.ar    1  UNL1       -0.0614
     33 C          -8.0758    2.5499    7.9027 C.ar    1  UNL1       -0.0559
     34 C          -8.9646    2.4581    6.8390 C.ar    1  UNL1       -0.0157
     35 C          -2.1253    3.7433    2.0339 C.3     1  UNL1        0.0135
     36 C          -0.8117    3.0088    1.7708 C.3     1  UNL1        0.0333
     37 H           1.4508    5.7756    1.3949 H       1  UNL1        0.0637
     38 H           1.4579    8.1800    1.9261 H       1  UNL1        0.0624
     39 H           1.6506    7.2604    6.0862 H       1  UNL1        0.0624
     40 H           1.6397    4.8560    5.5552 H       1  UNL1        0.0637
     41 H          -0.9120    1.4035    4.1370 H       1  UNL1        0.0456
     42 H          -0.0724    2.6465    5.1018 H       1  UNL1        0.0456
     43 H          -2.5911    2.8062    5.2339 H       1  UNL1        0.0440
     44 H          -1.8196    4.2819    4.6038 H       1  UNL1        0.0440
     45 H          -4.0841    4.6374    3.8706 H       1  UNL1        0.0453
     46 H          -4.6191    3.8433    2.3701 H       1  UNL1        0.0453
     47 H          -5.6042    1.5980    2.5816 H       1  UNL1        0.2099
     48 H          -6.2675    4.3194    4.8841 H       1  UNL1        0.0586
     49 H          -6.9157    3.4630    3.4647 H       1  UNL1        0.0586
     50 H          -9.1434    2.8660    3.4368 H       1  UNL1        0.0294
     51 H          -9.2491    1.3087    4.2976 H       1  UNL1        0.0294
     52 H         -10.9532    3.7384    5.0132 H       1  UNL1        0.0269
     53 H         -11.4952    2.4567    3.8993 H       1  UNL1        0.0269
     54 H         -12.2177    2.1225    6.3068 H       1  UNL1        0.0313
     55 H         -11.2860    0.7724    5.6230 H       1  UNL1        0.0313
     56 H         -11.5953    1.1495    8.4856 H       1  UNL1        0.0620
     57 H         -10.0202    1.3192   10.3639 H       1  UNL1        0.0618
     58 H          -7.7542    2.2165    9.9886 H       1  UNL1        0.0618
     59 H          -7.0835    2.9436    7.7393 H       1  UNL1        0.0621
     60 H          -2.7575    3.6895    1.1476 H       1  UNL1        0.0440
     61 H          -1.9147    4.7868    2.2682 H       1  UNL1        0.0440
     62 H          -0.2424    3.5388    1.0072 H       1  UNL1        0.0456
     63 H          -1.0210    1.9927    1.4362 H       1  UNL1        0.0456
@<TRIPOS>BOND
     1     1     2    2
     2     2     3    2
     3     2     4    1
     4     2    14    1
     5     4    13   ar
     6     4     5   ar
     7     5     6   ar
     8     5    37    1
     9     6     7   ar
    10     6    38    1
    11     7     8    1
    12     7    12   ar
    13     8     9    1
    14     8    10    1
    15     8    11    1
    16    12    13   ar
    17    12    39    1
    18    13    40    1
    19    14    36    1
    20    14    15    1
    21    15    16    1
    22    15    41    1
    23    15    42    1
    24    16    17    1
    25    16    43    1
    26    16    44    1
    27    17    18    1
    28    17    35    1
    29    18    19    1
    30    18    45    1
    31    18    46    1
    32    19    20    1
    33    19    21    1
    34    19    22    1
    35    21    47    1
    36    22    23    1
    37    22    48    1
    38    22    49    1
    39    23    24    1
    40    24    25    1
    41    24    34    1
    42    24    26    1
    43    26    27    1
    44    26    50    1
    45    26    51    1
    46    27    28    1
    47    27    52    1
    48    27    53    1
    49    28    29    1
    50    28    54    1
    51    28    55    1
    52    29    34   ar
    53    29    30   ar
    54    30    31   ar
    55    30    56    1
    56    31    32   ar
    57    31    57    1
    58    32    33   ar
    59    32    58    1
    60    33    34   ar
    61    33    59    1
    62    35    36    1
    63    35    60    1
    64    35    61    1
    65    36    62    1
    66    36    63    1
