@<TRIPOS>MOLECULE
ZINC000012648728
 57 59 0 0 0
SMALL
GASTEIGER

@<TRIPOS>ATOM
      1 C          -0.0187    1.5258    0.0104 C.3     1  UNL1       -0.0612
      2 C           0.0021   -0.0041    0.0020 C.3     1  UNL1       -0.0292
      3 H          -1.0203   -0.3818    0.0098 H       1  UNL1        0.0311
      4 C           0.7197   -0.4983   -1.2561 C.3     1  UNL1       -0.0454
      5 C           2.1447    0.0591   -1.2848 C.3     1  UNL1       -0.0292
      6 H           2.1098    1.1484   -1.2667 H       1  UNL1        0.0311
      7 C           2.8502   -0.4081   -2.5595 C.3     1  UNL1       -0.0612
      8 C           2.9119   -0.4483   -0.0597 C.3     1  UNL1        0.0231
      9 N           2.1531   -0.1028    1.1500 N.3     1  UNL1       -0.1761
     10 S           2.8710    0.7328    2.3864 S.O2    1  UNL1        0.0609
     11 O           2.1258    0.4336    3.5587 O.2     1  UNL1       -0.1528
     12 O           4.2677    0.4971    2.2721 O.2     1  UNL1       -0.1528
     13 C           2.6281    2.4484    2.0667 C.ar    1  UNL1        0.1055
     14 C           3.5587    3.1481    1.3192 C.ar    1  UNL1       -0.0346
     15 C           3.3748    4.4915    1.0651 C.ar    1  UNL1       -0.0459
     16 C           2.2463    5.1449    1.5642 C.ar    1  UNL1        0.0591
     17 C           2.0424    6.5832    1.2958 C.2     1  UNL1        0.3396
     18 O           2.8574    7.2001    0.6395 O.2     1  UNL1       -0.2449
     19 O           0.9525    7.2106    1.7787 O.3     1  UNL1       -0.4531
     20 C           0.8173    8.6242    1.4758 C.3     1  UNL1        0.1550
     21 C          -0.4522    9.1512    2.0937 C.2     1  UNL1        0.2003
     22 O          -1.1719    8.4087    2.7269 O.2     1  UNL1       -0.2884
     23 C          -0.8183   10.5670    1.9286 C.ar    1  UNL1        0.0214
     24 C           0.0061   11.4251    1.1943 C.ar    1  UNL1       -0.0511
     25 C          -0.3439   12.7506    1.0442 C.ar    1  UNL1       -0.0606
     26 C          -1.5072   13.2320    1.6184 C.ar    1  UNL1       -0.0501
     27 C          -2.3286   12.3889    2.3468 C.ar    1  UNL1        0.0555
     28 C          -3.5933   12.9236    2.9678 C.3     1  UNL1        0.4174
     29 F          -3.7185   14.2853    2.6720 F       1  UNL1       -0.1659
     30 F          -4.6946   12.2314    2.4529 F       1  UNL1       -0.1659
     31 F          -3.5408   12.7507    4.3551 F       1  UNL1       -0.1659
     32 C          -1.9957   11.0599    2.5007 C.ar    1  UNL1       -0.0395
     33 C           1.3111    4.4327    2.3178 C.ar    1  UNL1       -0.0459
     34 C           1.5047    3.0884    2.5596 C.ar    1  UNL1       -0.0346
     35 C           0.7443   -0.5122    1.2421 C.3     1  UNL1        0.0231
     36 H           1.0039    1.9031    0.0027 H       1  UNL1        0.0233
     37 H          -0.5459    1.8868   -0.8726 H       1  UNL1        0.0233
     38 H          -0.5289    1.8773    0.9072 H       1  UNL1        0.0233
     39 H           0.7559   -1.5876   -1.2493 H       1  UNL1        0.0271
     40 H           0.1791   -0.1587   -2.1396 H       1  UNL1        0.0271
     41 H           2.3022   -0.0488   -3.4306 H       1  UNL1        0.0233
     42 H           3.8651   -0.0109   -2.5795 H       1  UNL1        0.0233
     43 H           2.8860   -1.4974   -2.5766 H       1  UNL1        0.0233
     44 H           3.0263   -1.5305   -0.1227 H       1  UNL1        0.0446
     45 H           3.8938    0.0234   -0.0223 H       1  UNL1        0.0446
     46 H           4.4314    2.6415    0.9341 H       1  UNL1        0.0637
     47 H           4.1021    5.0365    0.4818 H       1  UNL1        0.0626
     48 H           1.6713    9.1662    1.8820 H       1  UNL1        0.0782
     49 H           0.7799    8.7623    0.3952 H       1  UNL1        0.0782
     50 H           0.9148   11.0509    0.7462 H       1  UNL1        0.0625
     51 H           0.2918   13.4146    0.4773 H       1  UNL1        0.0618
     52 H          -1.7756   14.2712    1.4979 H       1  UNL1        0.0623
     53 H          -2.6378   10.4032    3.0689 H       1  UNL1        0.0630
     54 H           0.4361    4.9321    2.7068 H       1  UNL1        0.0626
     55 H           0.7822    2.5363    3.1423 H       1  UNL1        0.0637
     56 H           0.2967   -0.0824    2.1382 H       1  UNL1        0.0446
     57 H           0.6819   -1.5995    1.2854 H       1  UNL1        0.0446
@<TRIPOS>BOND
     1     1     2    1
     2     1    36    1
     3     1    37    1
     4     1    38    1
     5     2     3    1
     6     2    35    1
     7     2     4    1
     8     4     5    1
     9     4    39    1
    10     4    40    1
    11     5     6    1
    12     5     7    1
    13     5     8    1
    14     7    41    1
    15     7    42    1
    16     7    43    1
    17     8     9    1
    18     8    44    1
    19     8    45    1
    20    10     9    1
    21     9    35    1
    22    10    11    2
    23    10    12    2
    24    10    13    1
    25    13    34   ar
    26    13    14   ar
    27    14    15   ar
    28    14    46    1
    29    15    16   ar
    30    15    47    1
    31    16    17    1
    32    16    33   ar
    33    17    18    2
    34    17    19    1
    35    19    20    1
    36    20    21    1
    37    20    48    1
    38    20    49    1
    39    21    22    2
    40    21    23    1
    41    23    32   ar
    42    23    24   ar
    43    24    25   ar
    44    24    50    1
    45    25    26   ar
    46    25    51    1
    47    26    27   ar
    48    26    52    1
    49    27    28    1
    50    27    32   ar
    51    28    29    1
    52    28    30    1
    53    28    31    1
    54    32    53    1
    55    33    34   ar
    56    33    54    1
    57    34    55    1
    58    35    56    1
    59    35    57    1
