@<TRIPOS>MOLECULE
ZINC000012793038
 51 53 0 0 0
SMALL
GASTEIGER

@<TRIPOS>ATOM
      1 C          -0.2511    1.4935   -0.0990 C.3     1  UNL1       -0.0191
      2 C           0.0015   -0.0119    0.0047 C.3     1  UNL1        0.1728
      3 H          -0.9501   -0.5339    0.1054 H       1  UNL1        0.0828
      4 O           0.6709   -0.4649   -1.1737 O.3     1  UNL1       -0.4799
      5 C          -0.1065   -0.7748   -2.2444 C.ar    1  UNL1        0.1216
      6 C           0.4644   -1.3311   -3.3799 C.ar    1  UNL1       -0.0199
      7 C          -0.3281   -1.6456   -4.4668 C.ar    1  UNL1       -0.0583
      8 C          -1.6891   -1.4060   -4.4239 C.ar    1  UNL1       -0.0615
      9 C          -2.2605   -0.8512   -3.2936 C.ar    1  UNL1       -0.0583
     10 C          -1.4732   -0.5406   -2.2017 C.ar    1  UNL1       -0.0199
     11 C           0.8599   -0.2954    1.2105 C.2     1  UNL1        0.2561
     12 O           1.9756   -0.7488    1.0675 O.2     1  UNL1       -0.2715
     13 N           0.3877   -0.0450    2.4477 N.am    1  UNL1       -0.2959
     14 C          -0.9646    0.4987    2.6364 C.3     1  UNL1        0.0292
     15 C          -1.7400   -0.4318    3.5772 C.3     1  UNL1        0.0363
     16 N          -0.9121   -0.6980    4.7619 N.3     1  UNL1       -0.1736
     17 S          -1.4927   -0.3913    6.2822 S.O2    1  UNL1        0.0609
     18 O          -0.3568   -0.2110    7.1167 O.2     1  UNL1       -0.1528
     19 O          -2.5108    0.5886    6.1328 O.2     1  UNL1       -0.1528
     20 C          -2.2925   -1.8586    6.8408 C.ar    1  UNL1        0.1055
     21 C          -3.6366   -2.0538    6.5837 C.ar    1  UNL1       -0.0348
     22 C          -4.2641   -3.2049    7.0220 C.ar    1  UNL1       -0.0483
     23 C          -3.5474   -4.1610    7.7169 C.ar    1  UNL1        0.0549
     24 C          -4.2316   -5.4157    8.1951 C.3     1  UNL1        0.4174
     25 F          -4.1402   -6.4022    7.2073 F       1  UNL1       -0.1659
     26 F          -3.6116   -5.8682    9.3648 F       1  UNL1       -0.1659
     27 F          -5.5782   -5.1416    8.4572 F       1  UNL1       -0.1659
     28 C          -2.2029   -3.9665    7.9728 C.ar    1  UNL1       -0.0483
     29 C          -1.5745   -2.8172    7.5312 C.ar    1  UNL1       -0.0348
     30 C           0.4402   -1.2416    4.5733 C.3     1  UNL1        0.0363
     31 C           1.2136   -0.3164    3.6327 C.3     1  UNL1        0.0292
     32 H           0.7005    2.0155   -0.1996 H       1  UNL1        0.0270
     33 H          -0.8720    1.6985   -0.9711 H       1  UNL1        0.0270
     34 H          -0.7617    1.8390    0.7999 H       1  UNL1        0.0270
     35 H           1.5276   -1.5178   -3.4141 H       1  UNL1        0.0654
     36 H           0.1159   -2.0787   -5.3509 H       1  UNL1        0.0619
     37 H          -2.3070   -1.6522   -5.2748 H       1  UNL1        0.0618
     38 H          -3.3238   -0.6646   -3.2627 H       1  UNL1        0.0619
     39 H          -1.9200   -0.1072   -1.3191 H       1  UNL1        0.0654
     40 H          -0.9007    1.4937    3.0768 H       1  UNL1        0.0478
     41 H          -1.4743    0.5537    1.6745 H       1  UNL1        0.0478
     42 H          -2.6703    0.0480    3.8814 H       1  UNL1        0.0459
     43 H          -1.9592   -1.3691    3.0659 H       1  UNL1        0.0459
     44 H          -4.1966   -1.3067    6.0408 H       1  UNL1        0.0637
     45 H          -5.3145   -3.3570    6.8218 H       1  UNL1        0.0624
     46 H          -1.6429   -4.7137    8.5154 H       1  UNL1        0.0624
     47 H          -0.5241   -2.6652    7.7311 H       1  UNL1        0.0637
     48 H           0.9499   -1.2967    5.5352 H       1  UNL1        0.0459
     49 H           0.3763   -2.2367    4.1329 H       1  UNL1        0.0459
     50 H           2.1435   -0.7974    3.3293 H       1  UNL1        0.0478
     51 H           1.4333    0.6220    4.1417 H       1  UNL1        0.0478
@<TRIPOS>BOND
     1     1     2    1
     2     1    32    1
     3     1    33    1
     4     1    34    1
     5     2     3    1
     6     2     4    1
     7     2    11    1
     8     4     5    1
     9     5    10   ar
    10     5     6   ar
    11     6     7   ar
    12     6    35    1
    13     7     8   ar
    14     7    36    1
    15     8     9   ar
    16     8    37    1
    17     9    10   ar
    18     9    38    1
    19    10    39    1
    20    11    12    2
    21    11    13   am
    22    13    31    1
    23    13    14    1
    24    14    15    1
    25    14    40    1
    26    14    41    1
    27    15    16    1
    28    15    42    1
    29    15    43    1
    30    17    16    1
    31    16    30    1
    32    17    18    2
    33    17    19    2
    34    17    20    1
    35    20    29   ar
    36    20    21   ar
    37    21    22   ar
    38    21    44    1
    39    22    23   ar
    40    22    45    1
    41    23    24    1
    42    23    28   ar
    43    24    25    1
    44    24    26    1
    45    24    27    1
    46    28    29   ar
    47    28    46    1
    48    29    47    1
    49    30    31    1
    50    30    48    1
    51    30    49    1
    52    31    50    1
    53    31    51    1
