@<TRIPOS>MOLECULE
ZINC000068741251
 36 37 0 0 0
SMALL
GASTEIGER

@<TRIPOS>ATOM
      1 O          -0.0564   -0.4267   -0.5150 O.2     1  UNL1       -0.1528
      2 S          -0.1441    0.9472   -0.1627 S.O2    1  UNL1        0.0614
      3 O           0.9928    1.7505    0.1227 O.2     1  UNL1       -0.1528
      4 C          -0.9989    1.7452   -1.4808 C.ar    1  UNL1        0.1176
      5 C          -2.3485    2.0189   -1.3636 C.ar    1  UNL1       -0.0232
      6 C          -3.0193    2.6450   -2.3977 C.ar    1  UNL1        0.0567
      7 C          -4.4910    2.9431   -2.2702 C.3     1  UNL1        0.4175
      8 F          -4.6627    4.2104   -1.7032 F       1  UNL1       -0.1659
      9 F          -5.0841    2.9146   -3.5369 F       1  UNL1       -0.1659
     10 F          -5.0924    1.9807   -1.4520 F       1  UNL1       -0.1659
     11 C          -2.3399    2.9981   -3.5485 C.ar    1  UNL1       -0.0495
     12 C          -0.9897    2.7247   -3.6655 C.ar    1  UNL1       -0.0477
     13 C          -0.3183    2.1026   -2.6299 C.ar    1  UNL1        0.0811
     14 C           1.1535    1.8046   -2.7575 C.3     1  UNL1        0.4192
     15 F           1.5831    2.1217   -4.0505 F       1  UNL1       -0.1658
     16 F           1.8665    2.5699   -1.8284 F       1  UNL1       -0.1658
     17 F           1.3771    0.4456   -2.5119 F       1  UNL1       -0.1658
     18 N          -1.1197    1.0260    1.1730 N.3     1  UNL1       -0.1766
     19 C          -1.1338    2.2266    2.0199 C.3     1  UNL1        0.0205
     20 C          -2.5799    2.7110    2.1646 C.3     1  UNL1       -0.0385
     21 C          -3.4482    1.5637    2.6861 C.3     1  UNL1       -0.0506
     22 C          -3.4242    0.4072    1.6840 C.3     1  UNL1       -0.0385
     23 C          -1.9921   -0.1009    1.5304 C.3     1  UNL1        0.0205
     24 H          -2.8793    1.7433   -0.4643 H       1  UNL1        0.0643
     25 H          -2.8638    3.4872   -4.3563 H       1  UNL1        0.0623
     26 H          -0.4589    3.0003   -4.5648 H       1  UNL1        0.0624
     27 H          -0.7293    1.9851    3.0029 H       1  UNL1        0.0444
     28 H          -0.5314    3.0078    1.5564 H       1  UNL1        0.0444
     29 H          -2.6162    3.5432    2.8675 H       1  UNL1        0.0278
     30 H          -2.9531    3.0374    1.1939 H       1  UNL1        0.0278
     31 H          -3.0597    1.2212    3.6452 H       1  UNL1        0.0266
     32 H          -4.4730    1.9127    2.8133 H       1  UNL1        0.0266
     33 H          -4.0613   -0.4002    2.0448 H       1  UNL1        0.0278
     34 H          -3.7894    0.7554    0.7178 H       1  UNL1        0.0278
     35 H          -1.9547   -0.8567    0.7459 H       1  UNL1        0.0444
     36 H          -1.6545   -0.5323    2.4727 H       1  UNL1        0.0444
@<TRIPOS>BOND
     1     1     2    2
     2     2     3    2
     3     2     4    1
     4     2    18    1
     5     4    13   ar
     6     4     5   ar
     7     5     6   ar
     8     5    24    1
     9     6     7    1
    10     6    11   ar
    11     7     8    1
    12     7     9    1
    13     7    10    1
    14    11    12   ar
    15    11    25    1
    16    12    13   ar
    17    12    26    1
    18    13    14    1
    19    14    15    1
    20    14    16    1
    21    14    17    1
    22    18    23    1
    23    18    19    1
    24    19    20    1
    25    19    27    1
    26    19    28    1
    27    20    21    1
    28    20    29    1
    29    20    30    1
    30    21    22    1
    31    21    31    1
    32    21    32    1
    33    22    23    1
    34    22    33    1
    35    22    34    1
    36    23    35    1
    37    23    36    1
