@<TRIPOS>MOLECULE
ZINC000048142396
 42 43 0 0 0
SMALL
GASTEIGER

@<TRIPOS>ATOM
      1 C          -0.5367    1.6199    0.3033 C.3     1  UNL1       -0.0343
      2 C          -0.2712    0.1212    0.1478 C.3     1  UNL1        0.1495
      3 H           0.2652   -0.0580   -0.7840 H       1  UNL1        0.0630
      4 C          -1.5823   -0.6214    0.1236 C.2     1  UNL1        0.2396
      5 O          -2.0268   -1.1005    1.1453 O.2     1  UNL1       -0.2735
      6 N          -2.2609   -0.7530   -1.0333 N.am    1  UNL1       -0.2969
      7 C          -1.7314   -0.1829   -2.2801 C.3     1  UNL1        0.0305
      8 C          -1.6390   -1.2984   -3.3286 C.3     1  UNL1        0.0293
      9 N          -2.9215   -2.0151   -3.3661 N.pl3   1  UNL1       -0.3122
     10 C          -3.6210   -2.1516   -4.5596 C.ar    1  UNL1        0.1213
     11 C          -3.0082   -1.8101   -5.7607 C.ar    1  UNL1       -0.0212
     12 C          -3.7157   -1.9514   -6.9410 C.ar    1  UNL1       -0.0454
     13 C          -5.0171   -2.4313   -6.8800 C.ar    1  UNL1        0.0730
     14 C          -5.8253   -2.6019   -8.1405 C.3     1  UNL1        0.4188
     15 F          -5.6260   -3.8888   -8.6517 F       1  UNL1       -0.1658
     16 F          -7.1822   -2.4194   -7.8527 F       1  UNL1       -0.1658
     17 F          -5.4180   -1.6558   -9.0872 F       1  UNL1       -0.1658
     18 C          -5.5632   -2.7511   -5.6529 C.ar    1  UNL1        0.0413
     19 N          -4.8629   -2.6109   -4.5434 N.ar    1  UNL1       -0.2398
     20 C          -3.4510   -2.5852   -2.1194 C.3     1  UNL1        0.0293
     21 C          -3.5407   -1.4746   -1.0719 C.3     1  UNL1        0.0305
     22 S           0.7293   -0.4636    1.5434 S.O2    1  UNL1       -0.0228
     23 C           2.1597    0.6496    1.4715 C.3     1  UNL1        0.0553
     24 O           0.0185   -0.2102    2.7476 O.2     1  UNL1       -0.1739
     25 O           1.1695   -1.7852    1.2626 O.2     1  UNL1       -0.1739
     26 H           0.4116    2.1570    0.3208 H       1  UNL1        0.0253
     27 H          -1.1378    1.9713   -0.5353 H       1  UNL1        0.0253
     28 H          -1.0730    1.7992    1.2351 H       1  UNL1        0.0253
     29 H          -2.4002    0.6003   -2.6372 H       1  UNL1        0.0480
     30 H          -0.7401    0.2330   -2.1001 H       1  UNL1        0.0480
     31 H          -1.4336   -0.8645   -4.3072 H       1  UNL1        0.0480
     32 H          -0.8413   -1.9900   -3.0577 H       1  UNL1        0.0480
     33 H          -1.9939   -1.4393   -5.7716 H       1  UNL1        0.0652
     34 H          -3.2660   -1.6938   -7.8886 H       1  UNL1        0.0625
     35 H          -6.5751   -3.1248   -5.6009 H       1  UNL1        0.0836
     36 H          -4.4423   -3.0011   -2.2994 H       1  UNL1        0.0480
     37 H          -2.7823   -3.3684   -1.7623 H       1  UNL1        0.0480
     38 H          -3.7461   -1.9098   -0.0939 H       1  UNL1        0.0480
     39 H          -4.3375   -0.7812   -1.3412 H       1  UNL1        0.0480
     40 H           1.8243    1.6802    1.5879 H       1  UNL1        0.0464
     41 H           2.8544    0.4009    2.2738 H       1  UNL1        0.0464
     42 H           2.6600    0.5367    0.5097 H       1  UNL1        0.0464
@<TRIPOS>BOND
     1     1     2    1
     2     1    26    1
     3     1    27    1
     4     1    28    1
     5     2     3    1
     6     2     4    1
     7    22     2    1
     8     4     5    2
     9     4     6   am
    10     6    21    1
    11     6     7    1
    12     7     8    1
    13     7    29    1
    14     7    30    1
    15     8     9    1
    16     8    31    1
    17     8    32    1
    18     9    10    1
    19     9    20    1
    20    10    19   ar
    21    10    11   ar
    22    11    12   ar
    23    11    33    1
    24    12    13   ar
    25    12    34    1
    26    13    14    1
    27    13    18   ar
    28    14    15    1
    29    14    16    1
    30    14    17    1
    31    18    19   ar
    32    18    35    1
    33    20    21    1
    34    20    36    1
    35    20    37    1
    36    21    38    1
    37    21    39    1
    38    22    23    1
    39    22    24    2
    40    22    25    2
    41    23    40    1
    42    23    41    1
    43    23    42    1
