@<TRIPOS>MOLECULE
ZINC000001703584
 56 57 0 0 0
SMALL
GASTEIGER

@<TRIPOS>ATOM
      1 C           0.0220    1.5413    0.0335 C.3     1  UNL1       -0.0641
      2 C           0.0326    0.0114    0.0204 C.3     1  UNL1       -0.0414
      3 C          -1.4063   -0.5087    0.0323 C.3     1  UNL1        0.0203
      4 N          -1.3961   -1.9736    0.0198 N.3     1  UNL1       -0.1766
      5 C          -1.2661   -2.7160    1.2761 C.3     1  UNL1        0.0203
      6 C          -2.6454   -2.8772    1.9183 C.3     1  UNL1       -0.0414
      7 C          -2.5096   -3.6525    3.2303 C.3     1  UNL1       -0.0641
      8 S          -1.5316   -2.7903   -1.4144 S.O2    1  UNL1        0.0609
      9 O          -2.0372   -4.0795   -1.0958 O.2     1  UNL1       -0.1528
     10 O          -2.1752   -1.9053   -2.3209 O.2     1  UNL1       -0.1528
     11 C           0.1005   -3.0345   -2.0318 C.ar    1  UNL1        0.1056
     12 C           0.6755   -2.0850   -2.8563 C.ar    1  UNL1       -0.0336
     13 C           1.9545   -2.2737   -3.3422 C.ar    1  UNL1       -0.0385
     14 C           2.6633   -3.4182   -3.0016 C.ar    1  UNL1        0.0366
     15 N           3.9597   -3.6122   -3.4919 N.am    1  UNL1       -0.2511
     16 C           4.2826   -3.1875   -4.7296 C.2     1  UNL1        0.4052
     17 O           3.4746   -2.5623   -5.3875 O.2     1  UNL1       -0.2261
     18 O           5.5005   -3.4560   -5.2371 O.3     1  UNL1       -0.4390
     19 C           5.7790   -2.9677   -6.5759 C.3     1  UNL1        0.1614
     20 H           5.2113   -2.0547   -6.7551 H       1  UNL1        0.0817
     21 C           5.3740   -4.0294   -7.6005 C.3     1  UNL1       -0.0112
     22 C           3.8585   -4.2337   -7.5513 C.3     1  UNL1       -0.0615
     23 C           7.2519   -2.6777   -6.7085 C.ar    1  UNL1        0.1453
     24 C           7.7918   -1.6244   -7.3476 C.ar    1  UNL1       -0.0170
     25 C           9.1951   -1.7465   -7.2255 C.ar    1  UNL1       -0.0235
     26 C           9.4287   -2.8672   -6.5191 C.ar    1  UNL1        0.0923
     27 O           8.2479   -3.4240   -6.2037 O.2     1  UNL1       -0.4641
     28 C           2.0832   -4.3697   -2.1729 C.ar    1  UNL1       -0.0385
     29 C           0.8058   -4.1726   -1.6861 C.ar    1  UNL1       -0.0336
     30 H           1.0470    1.9119    0.0249 H       1  UNL1        0.0230
     31 H          -0.5044    1.9086   -0.8475 H       1  UNL1        0.0230
     32 H          -0.4842    1.8935    0.9323 H       1  UNL1        0.0230
     33 H           0.5388   -0.3407   -0.8784 H       1  UNL1        0.0275
     34 H           0.5590   -0.3558    0.9013 H       1  UNL1        0.0275
     35 H          -1.9124   -0.1565    0.9311 H       1  UNL1        0.0444
     36 H          -1.9327   -0.1414   -0.8486 H       1  UNL1        0.0444
     37 H          -0.8419   -3.6996    1.0746 H       1  UNL1        0.0444
     38 H          -0.6109   -2.1698    1.9547 H       1  UNL1        0.0444
     39 H          -3.0695   -1.8935    2.1198 H       1  UNL1        0.0275
     40 H          -3.3006   -3.4233    1.2397 H       1  UNL1        0.0275
     41 H          -1.8544   -3.1063    3.9089 H       1  UNL1        0.0230
     42 H          -3.4922   -3.7673    3.6878 H       1  UNL1        0.0230
     43 H          -2.0854   -4.6361    3.0288 H       1  UNL1        0.0230
     44 H           0.1238   -1.1951   -3.1209 H       1  UNL1        0.0638
     45 H           2.4028   -1.5321   -3.9868 H       1  UNL1        0.0637
     46 H           4.6258   -4.0523   -2.9410 H       1  UNL1        0.1582
     47 H           5.6641   -3.7006   -8.5984 H       1  UNL1        0.0303
     48 H           5.8751   -4.9690   -7.3675 H       1  UNL1        0.0303
     49 H           3.3575   -3.2941   -7.7842 H       1  UNL1        0.0231
     50 H           3.5700   -4.9901   -8.2812 H       1  UNL1        0.0231
     51 H           3.5684   -4.5625   -6.5534 H       1  UNL1        0.0231
     52 H           7.2562   -0.8369   -7.8568 H       1  UNL1        0.0653
     53 H           9.9370   -1.0701   -7.6234 H       1  UNL1        0.0649
     54 H          10.4008   -3.2518   -6.2481 H       1  UNL1        0.1029
     55 H           2.6319   -5.2609   -1.9062 H       1  UNL1        0.0637
     56 H           0.3542   -4.9120   -1.0413 H       1  UNL1        0.0638
@<TRIPOS>BOND
     1     1     2    1
     2     1    30    1
     3     1    31    1
     4     1    32    1
     5     2     3    1
     6     2    33    1
     7     2    34    1
     8     3     4    1
     9     3    35    1
    10     3    36    1
    11     4     5    1
    12     8     4    1
    13     5     6    1
    14     5    37    1
    15     5    38    1
    16     6     7    1
    17     6    39    1
    18     6    40    1
    19     7    41    1
    20     7    42    1
    21     7    43    1
    22     8     9    2
    23     8    10    2
    24     8    11    1
    25    11    29   ar
    26    11    12   ar
    27    12    13   ar
    28    12    44    1
    29    13    14   ar
    30    13    45    1
    31    14    15    1
    32    14    28   ar
    33    15    16   am
    34    15    46    1
    35    16    17    2
    36    16    18    1
    37    18    19    1
    38    19    20    1
    39    19    21    1
    40    19    23    1
    41    21    22    1
    42    21    47    1
    43    21    48    1
    44    22    49    1
    45    22    50    1
    46    22    51    1
    47    23    27   ar
    48    23    24   ar
    49    24    25   ar
    50    24    52    1
    51    25    26   ar
    52    25    53    1
    53    26    27   ar
    54    26    54    1
    55    28    29   ar
    56    28    55    1
    57    29    56    1
