@<TRIPOS>MOLECULE
ZINC000027462450
 54 54 0 0 0
SMALL
GASTEIGER

@<TRIPOS>ATOM
      1 C          -0.0187    1.5258    0.0104 C.3     1  UNL1       -0.0652
      2 C           0.0021   -0.0041    0.0020 C.3     1  UNL1       -0.0542
      3 C           0.7182   -0.4975   -1.2568 C.3     1  UNL1       -0.0350
      4 C           0.7390   -2.0273   -1.2652 C.3     1  UNL1        0.0203
      5 H          -0.2789   -2.4050   -1.1679 H       1  UNL1        0.0495
      6 C           1.3429   -2.5219   -2.5810 C.3     1  UNL1       -0.0466
      7 N           1.5485   -2.5109   -0.1440 N.am    1  UNL1       -0.3127
      8 C           1.3281   -3.7388    0.3660 C.2     1  UNL1        0.2135
      9 O           0.4596   -4.4434   -0.1031 O.2     1  UNL1       -0.2758
     10 C           2.1609   -4.2362    1.5193 C.3     1  UNL1        0.0279
     11 C           1.7101   -5.6472    1.9027 C.3     1  UNL1       -0.0194
     12 C           2.5429   -6.1446    3.0560 C.ar    1  UNL1       -0.0468
     13 C           3.7188   -6.8299    2.8144 C.ar    1  UNL1       -0.0567
     14 C           4.4827   -7.2862    3.8723 C.ar    1  UNL1       -0.0351
     15 C           4.0709   -7.0568    5.1718 C.ar    1  UNL1        0.1055
     16 S           5.0442   -7.6389    6.5202 S.O2    1  UNL1        0.0608
     17 O           4.1623   -7.7634    7.6275 O.2     1  UNL1       -0.1528
     18 O           5.8194   -8.7192    6.0187 O.2     1  UNL1       -0.1528
     19 N           6.1143   -6.4359    6.9077 N.3     1  UNL1       -0.1771
     20 C           5.7464   -5.4186    7.8957 C.3     1  UNL1        0.0177
     21 C           6.2738   -5.8300    9.2718 C.3     1  UNL1       -0.0507
     22 C           7.4287   -6.3889    6.2625 C.3     1  UNL1        0.0177
     23 C           7.3716   -5.4489    5.0567 C.3     1  UNL1       -0.0507
     24 C           2.8956   -6.3703    5.4134 C.ar    1  UNL1       -0.0351
     25 C           2.1337   -5.9107    4.3555 C.ar    1  UNL1       -0.0567
     26 H           1.0039    1.9031    0.0027 H       1  UNL1        0.0230
     27 H          -0.5459    1.8868   -0.8726 H       1  UNL1        0.0230
     28 H          -0.5289    1.8773    0.9072 H       1  UNL1        0.0230
     29 H           0.5293   -0.3651    0.8851 H       1  UNL1        0.0263
     30 H          -1.0205   -0.3814    0.0098 H       1  UNL1        0.0263
     31 H           0.1910   -0.1364   -2.1398 H       1  UNL1        0.0283
     32 H           1.7408   -0.1202   -1.2645 H       1  UNL1        0.0283
     33 H           2.3608   -2.1442   -2.6783 H       1  UNL1        0.0247
     34 H           1.3577   -3.6118   -2.5870 H       1  UNL1        0.0247
     35 H           0.7406   -2.1622   -3.4152 H       1  UNL1        0.0247
     36 H           2.2431   -1.9473    0.2312 H       1  UNL1        0.1490
     37 H           3.2108   -4.2570    1.2271 H       1  UNL1        0.0361
     38 H           2.0345   -3.5700    2.3727 H       1  UNL1        0.0361
     39 H           0.6602   -5.6264    2.1950 H       1  UNL1        0.0318
     40 H           1.8365   -6.3134    1.0493 H       1  UNL1        0.0318
     41 H           4.0406   -7.0092    1.7992 H       1  UNL1        0.0621
     42 H           5.4011   -7.8223    3.6836 H       1  UNL1        0.0637
     43 H           6.1824   -4.4611    7.6109 H       1  UNL1        0.0441
     44 H           4.6611   -5.3262    7.9353 H       1  UNL1        0.0441
     45 H           5.8377   -6.7875    9.5566 H       1  UNL1        0.0243
     46 H           7.3591   -5.9224    9.2322 H       1  UNL1        0.0243
     47 H           6.0001   -5.0731   10.0069 H       1  UNL1        0.0243
     48 H           8.1696   -6.0232    6.9735 H       1  UNL1        0.0441
     49 H           7.7065   -7.3892    5.9305 H       1  UNL1        0.0441
     50 H           6.6307   -5.8145    4.3457 H       1  UNL1        0.0243
     51 H           7.0938   -4.4485    5.3887 H       1  UNL1        0.0243
     52 H           8.3496   -5.4139    4.5767 H       1  UNL1        0.0243
     53 H           2.5740   -6.1907    6.4286 H       1  UNL1        0.0637
     54 H           1.2155   -5.3743    4.5442 H       1  UNL1        0.0621
@<TRIPOS>BOND
     1     1     2    1
     2     1    26    1
     3     1    27    1
     4     1    28    1
     5     2     3    1
     6     2    29    1
     7     2    30    1
     8     3     4    1
     9     3    31    1
    10     3    32    1
    11     4     5    1
    12     4     6    1
    13     4     7    1
    14     6    33    1
    15     6    34    1
    16     6    35    1
    17     7     8   am
    18     7    36    1
    19     8     9    2
    20     8    10    1
    21    10    11    1
    22    10    37    1
    23    10    38    1
    24    11    12    1
    25    11    39    1
    26    11    40    1
    27    12    25   ar
    28    12    13   ar
    29    13    14   ar
    30    13    41    1
    31    14    15   ar
    32    14    42    1
    33    15    16    1
    34    15    24   ar
    35    16    17    2
    36    16    18    2
    37    16    19    1
    38    19    20    1
    39    19    22    1
    40    20    21    1
    41    20    43    1
    42    20    44    1
    43    21    45    1
    44    21    46    1
    45    21    47    1
    46    22    23    1
    47    22    48    1
    48    22    49    1
    49    23    50    1
    50    23    51    1
    51    23    52    1
    52    24    25   ar
    53    24    53    1
    54    25    54    1
