@<TRIPOS>MOLECULE
ZINC000007063595
 53 54 0 0 0
SMALL
GASTEIGER

@<TRIPOS>ATOM
      1 C          -0.0575   -0.1847   -0.7038 C.3     1  UNL1       -0.0613
      2 C          -0.5741   -1.5386   -0.2131 C.3     1  UNL1       -0.0305
      3 C           0.1867   -1.9493    1.0213 C.ar    1  UNL1       -0.0474
      4 C           1.3482   -2.6897    0.9016 C.ar    1  UNL1       -0.0551
      5 C           2.0475   -3.0674    2.0315 C.ar    1  UNL1       -0.0197
      6 C           1.5837   -2.7027    3.2871 C.ar    1  UNL1        0.1212
      7 O           2.2700   -3.0727    4.4002 O.3     1  UNL1       -0.4828
      8 C           1.7337   -2.6620    5.6594 C.3     1  UNL1        0.1655
      9 C           2.6223   -3.1598    6.7702 C.2     1  UNL1        0.2548
     10 O           3.6169   -3.8029    6.5091 O.2     1  UNL1       -0.2717
     11 N           2.3116   -2.8903    8.0537 N.am    1  UNL1       -0.2826
     12 C           3.0812   -3.4332    9.0886 C.ar    1  UNL1        0.0353
     13 C           4.4511   -3.5920    8.9273 C.ar    1  UNL1       -0.0404
     14 C           5.2080   -4.1284    9.9508 C.ar    1  UNL1       -0.0582
     15 C           4.6027   -4.5074   11.1347 C.ar    1  UNL1       -0.0352
     16 C           3.2384   -4.3509   11.2983 C.ar    1  UNL1        0.1072
     17 S           2.4719   -4.8355   12.8091 S.O2    1  UNL1        0.0609
     18 O           1.1063   -5.0837   12.5046 O.2     1  UNL1       -0.1528
     19 O           3.3256   -5.8063   13.3988 O.2     1  UNL1       -0.1528
     20 N           2.4951   -3.5198   13.8146 N.3     1  UNL1       -0.1771
     21 C           1.3789   -2.5711   13.8054 C.3     1  UNL1        0.0177
     22 C           0.3869   -2.9400   14.9103 C.3     1  UNL1       -0.0507
     23 C           3.6320   -3.3047   14.7132 C.3     1  UNL1        0.0177
     24 C           4.6341   -2.3577   14.0501 C.3     1  UNL1       -0.0507
     25 C           2.4771   -3.8092   10.2814 C.ar    1  UNL1       -0.0141
     26 C           0.4182   -1.9594    3.4045 C.ar    1  UNL1       -0.0197
     27 C          -0.2749   -1.5801    2.2712 C.ar    1  UNL1       -0.0551
     28 H           1.0034   -0.2649   -0.9408 H       1  UNL1        0.0233
     29 H          -0.6078    0.1123   -1.5965 H       1  UNL1        0.0233
     30 H          -0.2000    0.5630    0.0764 H       1  UNL1        0.0233
     31 H          -1.6350   -1.4585    0.0240 H       1  UNL1        0.0311
     32 H          -0.4316   -2.2864   -0.9933 H       1  UNL1        0.0311
     33 H           1.7089   -2.9734   -0.0761 H       1  UNL1        0.0621
     34 H           2.9544   -3.6464    1.9375 H       1  UNL1        0.0654
     35 H           1.6825   -1.5738    5.6951 H       1  UNL1        0.0795
     36 H           0.7331   -3.0770    5.7809 H       1  UNL1        0.0795
     37 H           1.5546   -2.3200    8.2600 H       1  UNL1        0.1549
     38 H           4.9243   -3.2969    8.0024 H       1  UNL1        0.0636
     39 H           6.2736   -4.2522    9.8260 H       1  UNL1        0.0619
     40 H           5.1966   -4.9268   11.9333 H       1  UNL1        0.0637
     41 H           1.7570   -1.5635   13.9782 H       1  UNL1        0.0441
     42 H           0.8769   -2.6100   12.8387 H       1  UNL1        0.0441
     43 H           0.8889   -2.9011   15.8771 H       1  UNL1        0.0243
     44 H          -0.4436   -2.2341   14.9035 H       1  UNL1        0.0243
     45 H           0.0088   -3.9476   14.7376 H       1  UNL1        0.0243
     46 H           3.2794   -2.8653   15.6463 H       1  UNL1        0.0441
     47 H           4.1164   -4.2588   14.9211 H       1  UNL1        0.0441
     48 H           5.4799   -2.1976   14.7188 H       1  UNL1        0.0243
     49 H           4.9867   -2.7971   13.1170 H       1  UNL1        0.0243
     50 H           4.1497   -1.4036   13.8423 H       1  UNL1        0.0243
     51 H           1.4118   -3.6873   10.4098 H       1  UNL1        0.0656
     52 H           0.0549   -1.6745    4.3808 H       1  UNL1        0.0654
     53 H          -1.1820   -1.0011    2.3620 H       1  UNL1        0.0621
@<TRIPOS>BOND
     1     1     2    1
     2     1    28    1
     3     1    29    1
     4     1    30    1
     5     2     3    1
     6     2    31    1
     7     2    32    1
     8     3    27   ar
     9     3     4   ar
    10     4     5   ar
    11     4    33    1
    12     5     6   ar
    13     5    34    1
    14     6     7    1
    15     6    26   ar
    16     7     8    1
    17     8     9    1
    18     8    35    1
    19     8    36    1
    20     9    10    2
    21     9    11   am
    22    11    12    1
    23    11    37    1
    24    12    25   ar
    25    12    13   ar
    26    13    14   ar
    27    13    38    1
    28    14    15   ar
    29    14    39    1
    30    15    16   ar
    31    15    40    1
    32    16    17    1
    33    16    25   ar
    34    17    18    2
    35    17    19    2
    36    17    20    1
    37    20    21    1
    38    20    23    1
    39    21    22    1
    40    21    41    1
    41    21    42    1
    42    22    43    1
    43    22    44    1
    44    22    45    1
    45    23    24    1
    46    23    46    1
    47    23    47    1
    48    24    48    1
    49    24    49    1
    50    24    50    1
    51    25    51    1
    52    26    27   ar
    53    26    52    1
    54    27    53    1
