@<TRIPOS>MOLECULE
ZINC000004694543
 47 49 0 0 0
SMALL
GASTEIGER

@<TRIPOS>ATOM
      1 O           0.0021   -0.0041    0.0020 O.2     1  UNL1       -0.2743
      2 C          -0.0144    1.2086    0.0087 C.2     1  UNL1        0.2290
      3 C           1.2803    1.9798    0.0005 C.3     1  UNL1        0.0968
      4 N           2.4066    1.0431   -0.0153 N.3     1  UNL1       -0.1675
      5 C           2.8870    0.4965   -1.2868 C.3     1  UNL1        0.0250
      6 C           3.8806    1.4732   -1.9190 C.3     1  UNL1       -0.0132
      7 C           4.3747    0.9110   -3.2269 C.ar    1  UNL1       -0.0461
      8 C           5.4974    0.1048   -3.2526 C.ar    1  UNL1       -0.0585
      9 C           5.9506   -0.4110   -4.4523 C.ar    1  UNL1       -0.0615
     10 C           5.2810   -0.1209   -5.6264 C.ar    1  UNL1       -0.0617
     11 C           4.1578    0.6845   -5.6006 C.ar    1  UNL1       -0.0615
     12 C           3.7020    1.1967   -4.4002 C.ar    1  UNL1       -0.0585
     13 S           3.1367    0.6021    1.4041 S.O2    1  UNL1        0.0613
     14 O           4.4513    0.1819    1.0655 O.2     1  UNL1       -0.1528
     15 O           2.8687    1.6430    2.3335 O.2     1  UNL1       -0.1528
     16 C           2.2960   -0.8267    2.0012 C.ar    1  UNL1        0.1055
     17 C           1.2047   -0.6872    2.8382 C.ar    1  UNL1       -0.0353
     18 C           0.5451   -1.8081    3.3066 C.ar    1  UNL1       -0.0599
     19 C           0.9765   -3.0685    2.9376 C.ar    1  UNL1       -0.0616
     20 C           2.0672   -3.2080    2.0999 C.ar    1  UNL1       -0.0599
     21 C           2.7242   -2.0870    1.6280 C.ar    1  UNL1       -0.0353
     22 N          -1.1906    1.8666    0.0178 N.am    1  UNL1       -0.3114
     23 C          -2.4492    1.1169    0.0197 C.3     1  UNL1        0.0233
     24 C          -3.5545    1.5944    0.9639 C.3     1  UNL1       -0.0328
     25 C          -3.6883    1.8152   -0.5442 C.3     1  UNL1       -0.0328
     26 H           1.3211    2.6120   -0.8866 H       1  UNL1        0.0539
     27 H           1.3381    2.6024    0.8933 H       1  UNL1        0.0539
     28 H           3.3803   -0.4590   -1.1083 H       1  UNL1        0.0447
     29 H           2.0432    0.3494   -1.9610 H       1  UNL1        0.0447
     30 H           3.3872    2.4287   -2.0974 H       1  UNL1        0.0326
     31 H           4.7243    1.6203   -1.2448 H       1  UNL1        0.0326
     32 H           6.0205   -0.1218   -2.3353 H       1  UNL1        0.0620
     33 H           6.8281   -1.0402   -4.4725 H       1  UNL1        0.0618
     34 H           5.6355   -0.5233   -6.5638 H       1  UNL1        0.0618
     35 H           3.6348    0.9113   -6.5179 H       1  UNL1        0.0618
     36 H           2.8245    1.8260   -4.3801 H       1  UNL1        0.0620
     37 H           0.8677    0.2976    3.1264 H       1  UNL1        0.0637
     38 H          -0.3070   -1.6991    3.9611 H       1  UNL1        0.0618
     39 H           0.4616   -3.9442    3.3041 H       1  UNL1        0.0618
     40 H           2.4045   -4.1928    1.8119 H       1  UNL1        0.0618
     41 H           3.5763   -2.1960    0.9735 H       1  UNL1        0.0637
     42 H          -1.2037    2.8365    0.0232 H       1  UNL1        0.1490
     43 H          -2.3574    0.0435   -0.1460 H       1  UNL1        0.0498
     44 H          -4.1899    0.8350    1.4197 H       1  UNL1        0.0284
     45 H          -3.3451    2.4662    1.5836 H       1  UNL1        0.0284
     46 H          -3.5670    2.8324   -0.9165 H       1  UNL1        0.0284
     47 H          -4.4117    1.2012   -1.0805 H       1  UNL1        0.0284
@<TRIPOS>BOND
     1     1     2    2
     2     2     3    1
     3     2    22   am
     4     3     4    1
     5     3    26    1
     6     3    27    1
     7     4     5    1
     8    13     4    1
     9     5     6    1
    10     5    28    1
    11     5    29    1
    12     6     7    1
    13     6    30    1
    14     6    31    1
    15     7    12   ar
    16     7     8   ar
    17     8     9   ar
    18     8    32    1
    19     9    10   ar
    20     9    33    1
    21    10    11   ar
    22    10    34    1
    23    11    12   ar
    24    11    35    1
    25    12    36    1
    26    13    14    2
    27    13    15    2
    28    13    16    1
    29    16    21   ar
    30    16    17   ar
    31    17    18   ar
    32    17    37    1
    33    18    19   ar
    34    18    38    1
    35    19    20   ar
    36    19    39    1
    37    20    21   ar
    38    20    40    1
    39    21    41    1
    40    22    23    1
    41    22    42    1
    42    23    25    1
    43    23    24    1
    44    23    43    1
    45    24    25    1
    46    24    44    1
    47    24    45    1
    48    25    46    1
    49    25    47    1
