@<TRIPOS>MOLECULE
ZINC000009630994
 63 65 0 0 0
SMALL
GASTEIGER

@<TRIPOS>ATOM
      1 C          -0.0046    1.3834    0.0535 C.3     1  UNL1       -0.0507
      2 C          -0.0084   -0.1464    0.0313 C.3     1  UNL1        0.0177
      3 N          -1.3908   -0.6315    0.0361 N.3     1  UNL1       -0.1771
      4 C          -2.1293   -0.7514   -1.2235 C.3     1  UNL1        0.0177
      5 C          -1.8132   -2.0998   -1.8736 C.3     1  UNL1       -0.0507
      6 S          -2.1185   -1.0443    1.4652 S.O2    1  UNL1        0.0609
      7 O          -3.1603   -1.9533    1.1371 O.2     1  UNL1       -0.1528
      8 O          -1.0711   -1.3574    2.3730 O.2     1  UNL1       -0.1528
      9 C          -2.9014    0.4054    2.0896 C.ar    1  UNL1        0.1075
     10 C          -2.2045    1.2613    2.9219 C.ar    1  UNL1       -0.0318
     11 C          -2.8137    2.4006    3.4151 C.ar    1  UNL1       -0.0163
     12 C          -4.1256    2.6870    3.0755 C.ar    1  UNL1        0.1413
     13 O          -4.7258    3.8071    3.5593 O.3     1  UNL1       -0.4933
     14 C          -3.9440    4.6448    4.4132 C.3     1  UNL1        0.0789
     15 C          -4.8287    1.8248    2.2367 C.ar    1  UNL1        0.0774
     16 N          -6.1560    2.1097    1.8894 N.am    1  UNL1       -0.2825
     17 C          -6.9847    1.1130    1.5203 C.2     1  UNL1        0.2182
     18 O          -6.6145   -0.0401    1.5881 O.2     1  UNL1       -0.2754
     19 C          -8.3714    1.4312    1.0233 C.3     1  UNL1        0.0351
     20 C          -9.0986    0.1312    0.6736 C.3     1  UNL1        0.0175
     21 C          -9.3008   -0.6836    1.9251 C.ar    1  UNL1       -0.0395
     22 C          -9.2195   -2.0625    1.8728 C.ar    1  UNL1       -0.0580
     23 C          -9.4050   -2.8099    3.0208 C.ar    1  UNL1       -0.0615
     24 C          -9.6714   -2.1783    4.2212 C.ar    1  UNL1       -0.0617
     25 C          -9.7518   -0.7993    4.2737 C.ar    1  UNL1       -0.0615
     26 C          -9.5620   -0.0517    3.1266 C.ar    1  UNL1       -0.0580
     27 C         -10.4378    0.4536    0.0623 C.ar    1  UNL1       -0.0395
     28 C         -11.4060    1.0908    0.8155 C.ar    1  UNL1       -0.0580
     29 C         -12.6344    1.3865    0.2546 C.ar    1  UNL1       -0.0615
     30 C         -12.8944    1.0454   -1.0595 C.ar    1  UNL1       -0.0617
     31 C         -11.9258    0.4091   -1.8130 C.ar    1  UNL1       -0.0615
     32 C         -10.6959    0.1172   -1.2535 C.ar    1  UNL1       -0.0580
     33 C          -4.2093    0.6871    1.7414 C.ar    1  UNL1       -0.0105
     34 H           1.0239    1.7443    0.0499 H       1  UNL1        0.0243
     35 H          -0.5251    1.7608   -0.8267 H       1  UNL1        0.0243
     36 H          -0.5100    1.7350    0.9530 H       1  UNL1        0.0243
     37 H           0.4969   -0.4980   -0.8682 H       1  UNL1        0.0441
     38 H           0.5121   -0.5238    0.9115 H       1  UNL1        0.0441
     39 H          -3.1991   -0.6856   -1.0250 H       1  UNL1        0.0441
     40 H          -1.8342    0.0542   -1.8958 H       1  UNL1        0.0441
     41 H          -2.1083   -2.9054   -1.2013 H       1  UNL1        0.0243
     42 H          -2.3627   -2.1890   -2.8108 H       1  UNL1        0.0243
     43 H          -0.7435   -2.1657   -2.0721 H       1  UNL1        0.0243
     44 H          -1.1816    1.0394    3.1880 H       1  UNL1        0.0638
     45 H          -2.2665    3.0670    4.0654 H       1  UNL1        0.0655
     46 H          -4.5408    5.5009    4.7278 H       1  UNL1        0.0660
     47 H          -3.6308    4.0783    5.2902 H       1  UNL1        0.0660
     48 H          -3.0641    4.9941    3.8730 H       1  UNL1        0.0660
     49 H          -6.4783    3.0242    1.9147 H       1  UNL1        0.1549
     50 H          -8.9239    1.9587    1.8009 H       1  UNL1        0.0368
     51 H          -8.3038    2.0598    0.1355 H       1  UNL1        0.0368
     52 H          -8.5018   -0.4387   -0.0385 H       1  UNL1        0.0402
     53 H          -9.0115   -2.5560    0.9349 H       1  UNL1        0.0620
     54 H          -9.3422   -3.8873    2.9797 H       1  UNL1        0.0618
     55 H          -9.8170   -2.7623    5.1180 H       1  UNL1        0.0618
     56 H          -9.9602   -0.3059    5.2116 H       1  UNL1        0.0618
     57 H          -9.6248    1.0257    3.1676 H       1  UNL1        0.0620
     58 H         -11.2029    1.3573    1.8422 H       1  UNL1        0.0620
     59 H         -13.3912    1.8837    0.8433 H       1  UNL1        0.0618
     60 H         -13.8543    1.2758   -1.4974 H       1  UNL1        0.0618
     61 H         -12.1290    0.1423   -2.8396 H       1  UNL1        0.0618
     62 H          -9.9391   -0.3800   -1.8421 H       1  UNL1        0.0620
     63 H          -4.7513    0.0168    1.0907 H       1  UNL1        0.0657
@<TRIPOS>BOND
     1     1     2    1
     2     1    34    1
     3     1    35    1
     4     1    36    1
     5     2     3    1
     6     2    37    1
     7     2    38    1
     8     3     4    1
     9     6     3    1
    10     4     5    1
    11     4    39    1
    12     4    40    1
    13     5    41    1
    14     5    42    1
    15     5    43    1
    16     6     7    2
    17     6     8    2
    18     6     9    1
    19     9    33   ar
    20     9    10   ar
    21    10    11   ar
    22    10    44    1
    23    11    12   ar
    24    11    45    1
    25    12    13    1
    26    12    15   ar
    27    13    14    1
    28    14    46    1
    29    14    47    1
    30    14    48    1
    31    15    16    1
    32    15    33   ar
    33    16    17   am
    34    16    49    1
    35    17    18    2
    36    17    19    1
    37    19    20    1
    38    19    50    1
    39    19    51    1
    40    20    21    1
    41    20    27    1
    42    20    52    1
    43    21    26   ar
    44    21    22   ar
    45    22    23   ar
    46    22    53    1
    47    23    24   ar
    48    23    54    1
    49    24    25   ar
    50    24    55    1
    51    25    26   ar
    52    25    56    1
    53    26    57    1
    54    27    32   ar
    55    27    28   ar
    56    28    29   ar
    57    28    58    1
    58    29    30   ar
    59    29    59    1
    60    30    31   ar
    61    30    60    1
    62    31    32   ar
    63    31    61    1
    64    32    62    1
    65    33    63    1
