@<TRIPOS>MOLECULE
ZINC000408703969
 49 51 0 0 0
SMALL
GASTEIGER

@<TRIPOS>ATOM
      1 C           0.3781    1.0163   -0.3628 C.3     1  UNL1       -0.0362
      2 C          -0.2117   -0.3753   -0.1250 C.3     1  UNL1        0.1191
      3 H          -1.2953   -0.3345   -0.2356 H       1  UNL1        0.0612
      4 C           0.3597   -1.3416   -1.1304 C.2     1  UNL1        0.2392
      5 O           1.3456   -1.9919   -0.8541 O.2     1  UNL1       -0.2734
      6 N          -0.2247   -1.4832   -2.3366 N.am    1  UNL1       -0.2839
      7 C           0.3565   -2.3120   -3.3026 C.ar    1  UNL1        0.0335
      8 C           0.2970   -1.9632   -4.6455 C.ar    1  UNL1       -0.0399
      9 C           0.8717   -2.7834   -5.5966 C.ar    1  UNL1       -0.0484
     10 C           1.5053   -3.9511   -5.2130 C.ar    1  UNL1        0.0549
     11 C           2.1307   -4.8439   -6.2535 C.3     1  UNL1        0.4174
     12 F           3.4618   -4.4635   -6.4552 F       1  UNL1       -0.1659
     13 F           2.0865   -6.1720   -5.8158 F       1  UNL1       -0.1659
     14 F           1.4245   -4.7252   -7.4553 F       1  UNL1       -0.1659
     15 C           1.5666   -4.3010   -3.8766 C.ar    1  UNL1       -0.0484
     16 C           0.9989   -3.4822   -2.9200 C.ar    1  UNL1       -0.0399
     17 N           0.1245   -0.8234    1.2287 N.pl3   1  UNL1       -0.1959
     18 C           1.4581   -0.8315    1.6519 C.ar    1  UNL1        0.0554
     19 C           2.1348    0.3661    1.8390 C.ar    1  UNL1       -0.0354
     20 C           3.4527    0.3584    2.2549 C.ar    1  UNL1       -0.0145
     21 C           4.1030   -0.8440    2.4868 C.ar    1  UNL1        0.1622
     22 O           5.4048   -0.8318    2.8882 O.3     1  UNL1       -0.4849
     23 C           5.9111   -2.0393    3.4674 C.3     1  UNL1        0.1237
     24 C           5.4779   -3.2156    2.5821 C.3     1  UNL1        0.1237
     25 O           4.0472   -3.2350    2.5312 O.3     1  UNL1       -0.4849
     26 C           3.4270   -2.0449    2.3039 C.ar    1  UNL1        0.1639
     27 C           2.1038   -2.0369    1.8905 C.ar    1  UNL1        0.0064
     28 S          -1.0739   -1.3202    2.2579 S.O2    1  UNL1        0.0433
     29 C          -1.3409   -3.0636    1.8337 C.3     1  UNL1        0.0738
     30 O          -0.4957   -1.2045    3.5508 O.2     1  UNL1       -0.1552
     31 O          -2.2010   -0.5385    1.8868 O.2     1  UNL1       -0.1552
     32 H           1.4659    0.9513   -0.3828 H       1  UNL1        0.0253
     33 H           0.0197    1.4047   -1.3161 H       1  UNL1        0.0253
     34 H           0.0687    1.6842    0.4411 H       1  UNL1        0.0253
     35 H          -1.0482   -1.0106   -2.5350 H       1  UNL1        0.1549
     36 H          -0.1983   -1.0516   -4.9458 H       1  UNL1        0.0636
     37 H           0.8257   -2.5126   -6.6411 H       1  UNL1        0.0624
     38 H           2.0622   -5.2136   -3.5801 H       1  UNL1        0.0624
     39 H           1.0471   -3.7561   -1.8765 H       1  UNL1        0.0636
     40 H           1.6312    1.3044    1.6590 H       1  UNL1        0.0638
     41 H           3.9774    1.2912    2.3994 H       1  UNL1        0.0656
     42 H           6.9992   -1.9961    3.5147 H       1  UNL1        0.0731
     43 H           5.5037   -2.1647    4.4706 H       1  UNL1        0.0731
     44 H           5.8798   -3.0869    1.5771 H       1  UNL1        0.0731
     45 H           5.8433   -4.1502    3.0079 H       1  UNL1        0.0731
     46 H           1.5765   -2.9689    1.7498 H       1  UNL1        0.0674
     47 H          -0.3864   -3.5900    1.8427 H       1  UNL1        0.0482
     48 H          -2.0124   -3.5164    2.5633 H       1  UNL1        0.0482
     49 H          -1.7842   -3.1321    0.8403 H       1  UNL1        0.0482
@<TRIPOS>BOND
     1     1     2    1
     2     1    32    1
     3     1    33    1
     4     1    34    1
     5     2     3    1
     6     2     4    1
     7     2    17    1
     8     4     5    2
     9     4     6   am
    10     6     7    1
    11     6    35    1
    12     7    16   ar
    13     7     8   ar
    14     8     9   ar
    15     8    36    1
    16     9    10   ar
    17     9    37    1
    18    10    11    1
    19    10    15   ar
    20    11    12    1
    21    11    13    1
    22    11    14    1
    23    15    16   ar
    24    15    38    1
    25    16    39    1
    26    17    18    1
    27    28    17    1
    28    18    27   ar
    29    18    19   ar
    30    19    20   ar
    31    19    40    1
    32    20    21   ar
    33    20    41    1
    34    21    26   ar
    35    21    22    1
    36    22    23    1
    37    23    24    1
    38    23    42    1
    39    23    43    1
    40    24    25    1
    41    24    44    1
    42    24    45    1
    43    25    26    1
    44    26    27   ar
    45    27    46    1
    46    28    29    1
    47    28    30    2
    48    28    31    2
    49    29    47    1
    50    29    48    1
    51    29    49    1
