@<TRIPOS>MOLECULE
ZINC000079016384
 53 55 0 0 0
SMALL
GASTEIGER

@<TRIPOS>ATOM
      1 C           0.0522    1.9959    0.1487 C.3     1  UNL1       -0.0507
      2 C           0.1315    0.4837   -0.0699 C.3     1  UNL1        0.0177
      3 N          -1.2223   -0.0660   -0.1761 N.3     1  UNL1       -0.1771
      4 C          -1.9171   -0.0576   -1.4658 C.3     1  UNL1        0.0177
      5 C          -1.5105   -1.2926   -2.2723 C.3     1  UNL1       -0.0507
      6 S          -1.9671   -0.6969    1.1616 S.O2    1  UNL1        0.0609
      7 O          -2.9487   -1.6061    0.6830 O.2     1  UNL1       -0.1528
      8 O          -0.9307   -1.0729    2.0581 O.2     1  UNL1       -0.1528
      9 C          -2.8445    0.6186    1.9391 C.ar    1  UNL1        0.1072
     10 C          -2.2195    1.3932    2.8987 C.ar    1  UNL1       -0.0352
     11 C          -2.9049    2.4264    3.5116 C.ar    1  UNL1       -0.0582
     12 C          -4.2161    2.6877    3.1663 C.ar    1  UNL1       -0.0404
     13 C          -4.8467    1.9116    2.2023 C.ar    1  UNL1        0.0353
     14 N          -6.1751    2.1740    1.8499 N.am    1  UNL1       -0.2826
     15 C          -6.6389    3.4394    1.8647 C.2     1  UNL1        0.2548
     16 O          -5.8822    4.3600    2.0901 O.2     1  UNL1       -0.2717
     17 C          -8.0978    3.7104    1.6013 C.3     1  UNL1        0.1655
     18 O          -8.3412    5.1167    1.6711 O.3     1  UNL1       -0.4826
     19 C          -9.6166    5.5335    1.4558 C.ar    1  UNL1        0.1247
     20 C         -10.6118    4.6043    1.1889 C.ar    1  UNL1       -0.0193
     21 C         -11.9079    5.0327    0.9667 C.ar    1  UNL1       -0.0491
     22 C         -12.2075    6.3764    1.0120 C.ar    1  UNL1        0.0260
     23 C         -11.2225    7.3179    1.2857 C.ar    1  UNL1        0.1298
     24 C          -9.9195    6.8836    1.5093 C.ar    1  UNL1        0.0222
     25 O         -11.7372    8.5781    1.3045 O.3     1  UNL1       -0.4886
     26 C         -12.9962    8.5857    0.6102 C.3     1  UNL1        0.1196
     27 C         -13.5031    7.1370    0.8043 C.3     1  UNL1        0.1174
     28 H         -14.1435    7.0629    1.6832 H       1  UNL1        0.0679
     29 O         -14.1861    6.6744   -0.3626 O.3     1  UNL1       -0.3837
     30 C          -4.1542    0.8784    1.5851 C.ar    1  UNL1       -0.0141
     31 H           1.0595    2.4049    0.2277 H       1  UNL1        0.0243
     32 H          -0.4626    2.4582   -0.6936 H       1  UNL1        0.0243
     33 H          -0.4967    2.2019    1.0675 H       1  UNL1        0.0243
     34 H           0.6805    0.2776   -0.9887 H       1  UNL1        0.0441
     35 H           0.6463    0.0213    0.7724 H       1  UNL1        0.0441
     36 H          -2.9941   -0.0715   -1.2984 H       1  UNL1        0.0441
     37 H          -1.6468    0.8422   -2.0183 H       1  UNL1        0.0441
     38 H          -1.7808   -2.1925   -1.7198 H       1  UNL1        0.0243
     39 H          -2.0275   -1.2864   -3.2319 H       1  UNL1        0.0243
     40 H          -0.4335   -1.2788   -2.4397 H       1  UNL1        0.0243
     41 H          -1.1941    1.1909    3.1705 H       1  UNL1        0.0637
     42 H          -2.4141    3.0293    4.2613 H       1  UNL1        0.0619
     43 H          -4.7509    3.4944    3.6455 H       1  UNL1        0.0636
     44 H          -6.7623    1.4452    1.5948 H       1  UNL1        0.1549
     45 H          -8.3618    3.3448    0.6089 H       1  UNL1        0.0795
     46 H          -8.7032    3.1992    2.3498 H       1  UNL1        0.0795
     47 H         -10.3753    3.5511    1.1544 H       1  UNL1        0.0654
     48 H         -12.6856    4.3132    0.7573 H       1  UNL1        0.0623
     49 H          -9.1407    7.6022    1.7175 H       1  UNL1        0.0691
     50 H         -13.6834    9.2993    1.0646 H       1  UNL1        0.0726
     51 H         -12.8525    8.8061   -0.4475 H       1  UNL1        0.0726
     52 H         -14.9722    7.1902   -0.5886 H       1  UNL1        0.2104
     53 H          -4.6417    0.2731    0.8352 H       1  UNL1        0.0656
@<TRIPOS>BOND
     1     1     2    1
     2     1    31    1
     3     1    32    1
     4     1    33    1
     5     2     3    1
     6     2    34    1
     7     2    35    1
     8     3     4    1
     9     6     3    1
    10     4     5    1
    11     4    36    1
    12     4    37    1
    13     5    38    1
    14     5    39    1
    15     5    40    1
    16     6     7    2
    17     6     8    2
    18     6     9    1
    19     9    30   ar
    20     9    10   ar
    21    10    11   ar
    22    10    41    1
    23    11    12   ar
    24    11    42    1
    25    12    13   ar
    26    12    43    1
    27    13    14    1
    28    13    30   ar
    29    14    15   am
    30    14    44    1
    31    15    16    2
    32    15    17    1
    33    17    18    1
    34    17    45    1
    35    17    46    1
    36    18    19    1
    37    19    24   ar
    38    19    20   ar
    39    20    21   ar
    40    20    47    1
    41    21    22   ar
    42    21    48    1
    43    22    27    1
    44    22    23   ar
    45    23    24   ar
    46    23    25    1
    47    24    49    1
    48    25    26    1
    49    26    27    1
    50    26    50    1
    51    26    51    1
    52    27    28    1
    53    27    29    1
    54    29    52    1
    55    30    53    1
