@<TRIPOS>MOLECULE
ZINC000408613870
 62 64 0 0 0
SMALL
GASTEIGER

@<TRIPOS>ATOM
      1 C          -3.5473   -9.2362   -0.1626 C.3     1  UNL1       -0.0397
      2 C          -2.6357   -8.0369   -0.1211 C.ar    1  UNL1       -0.0503
      3 C          -2.3830   -7.4020    1.0805 C.ar    1  UNL1       -0.0570
      4 C          -1.5469   -6.3019    1.1186 C.ar    1  UNL1       -0.0351
      5 C          -0.9630   -5.8370   -0.0449 C.ar    1  UNL1        0.1055
      6 S           0.1024   -4.4344    0.0035 S.O2    1  UNL1        0.0616
      7 O          -0.0082   -3.8025   -1.2645 O.2     1  UNL1       -0.1528
      8 O          -0.1663   -3.7685    1.2297 O.2     1  UNL1       -0.1528
      9 N           1.6547   -5.0013    0.1096 N.3     1  UNL1       -0.1635
     10 C           2.2185   -5.3527    1.4153 C.3     1  UNL1        0.0971
     11 C           2.0448   -6.8301    1.6563 C.2     1  UNL1        0.2290
     12 O           1.5033   -7.5215    0.8198 O.2     1  UNL1       -0.2743
     13 N           2.4912   -7.3831    2.8015 N.am    1  UNL1       -0.3116
     14 C           2.3223   -8.8194    3.0358 C.3     1  UNL1        0.0206
     15 H           2.4248   -9.3559    2.0926 H       1  UNL1        0.0495
     16 C           0.9338   -9.0805    3.6229 C.3     1  UNL1       -0.0466
     17 C           3.3907   -9.3050    4.0175 C.3     1  UNL1       -0.0308
     18 C           4.7736   -9.1589    3.3795 C.3     1  UNL1       -0.0260
     19 C           5.8259   -9.6372    4.3464 C.ar    1  UNL1       -0.0473
     20 C           6.3947   -8.7518    5.2427 C.ar    1  UNL1       -0.0586
     21 C           7.3600   -9.1906    6.1296 C.ar    1  UNL1       -0.0615
     22 C           7.7561  -10.5149    6.1206 C.ar    1  UNL1       -0.0617
     23 C           7.1867  -11.4006    5.2249 C.ar    1  UNL1       -0.0615
     24 C           6.2183  -10.9627    4.3408 C.ar    1  UNL1       -0.0586
     25 C           2.4641   -5.1515   -1.1023 C.3     1  UNL1        0.0460
     26 C           3.3251   -3.9284   -1.2860 C.ar    1  UNL1       -0.0317
     27 C           2.8966   -2.8976   -2.1012 C.ar    1  UNL1       -0.0573
     28 C           3.6864   -1.7757   -2.2698 C.ar    1  UNL1       -0.0615
     29 C           4.9045   -1.6844   -1.6228 C.ar    1  UNL1       -0.0617
     30 C           5.3327   -2.7149   -0.8069 C.ar    1  UNL1       -0.0615
     31 C           4.5410   -3.8349   -0.6349 C.ar    1  UNL1       -0.0573
     32 C          -1.2146   -6.4727   -1.2464 C.ar    1  UNL1       -0.0351
     33 C          -2.0477   -7.5751   -1.2838 C.ar    1  UNL1       -0.0570
     34 H          -2.9618  -10.1430   -0.0107 H       1  UNL1        0.0278
     35 H          -4.2960   -9.1509    0.6250 H       1  UNL1        0.0278
     36 H          -4.0434   -9.2821   -1.1321 H       1  UNL1        0.0278
     37 H          -2.8392   -7.7653    1.9896 H       1  UNL1        0.0621
     38 H          -1.3500   -5.8055    2.0573 H       1  UNL1        0.0637
     39 H           3.2797   -5.1042    1.4315 H       1  UNL1        0.0539
     40 H           1.7026   -4.7940    2.1961 H       1  UNL1        0.0539
     41 H           2.9243   -6.8302    3.4705 H       1  UNL1        0.1490
     42 H           0.1727   -8.7345    2.9236 H       1  UNL1        0.0247
     43 H           0.8081  -10.1491    3.7973 H       1  UNL1        0.0247
     44 H           0.8313   -8.5439    4.5662 H       1  UNL1        0.0247
     45 H           3.3457   -8.7078    4.9282 H       1  UNL1        0.0286
     46 H           3.2115  -10.3524    4.2606 H       1  UNL1        0.0286
     47 H           4.8186   -9.7561    2.4688 H       1  UNL1        0.0314
     48 H           4.9528   -8.1115    3.1364 H       1  UNL1        0.0314
     49 H           6.0852   -7.7171    5.2498 H       1  UNL1        0.0620
     50 H           7.8049   -8.4986    6.8294 H       1  UNL1        0.0618
     51 H           8.5108  -10.8576    6.8130 H       1  UNL1        0.0618
     52 H           7.4964  -12.4352    5.2175 H       1  UNL1        0.0618
     53 H           5.7734  -11.6546    3.6411 H       1  UNL1        0.0620
     54 H           3.0993   -6.0322   -1.0081 H       1  UNL1        0.0493
     55 H           1.8083   -5.2671   -1.9652 H       1  UNL1        0.0493
     56 H           1.9448   -2.9689   -2.6067 H       1  UNL1        0.0621
     57 H           3.3518   -0.9706   -2.9072 H       1  UNL1        0.0618
     58 H           5.5219   -0.8082   -1.7550 H       1  UNL1        0.0618
     59 H           6.2846   -2.6437   -0.3016 H       1  UNL1        0.0618
     60 H           4.8755   -4.6400    0.0025 H       1  UNL1        0.0621
     61 H          -0.7581   -6.1096   -2.1554 H       1  UNL1        0.0637
     62 H          -2.2443   -8.0718   -2.2225 H       1  UNL1        0.0621
@<TRIPOS>BOND
     1     1     2    1
     2     1    34    1
     3     1    35    1
     4     1    36    1
     5     2    33   ar
     6     2     3   ar
     7     3     4   ar
     8     3    37    1
     9     4     5   ar
    10     4    38    1
    11     5     6    1
    12     5    32   ar
    13     6     7    2
    14     6     8    2
    15     6     9    1
    16     9    10    1
    17     9    25    1
    18    10    11    1
    19    10    39    1
    20    10    40    1
    21    11    12    2
    22    11    13   am
    23    13    14    1
    24    13    41    1
    25    14    15    1
    26    14    16    1
    27    14    17    1
    28    16    42    1
    29    16    43    1
    30    16    44    1
    31    17    18    1
    32    17    45    1
    33    17    46    1
    34    18    19    1
    35    18    47    1
    36    18    48    1
    37    19    24   ar
    38    19    20   ar
    39    20    21   ar
    40    20    49    1
    41    21    22   ar
    42    21    50    1
    43    22    23   ar
    44    22    51    1
    45    23    24   ar
    46    23    52    1
    47    24    53    1
    48    25    26    1
    49    25    54    1
    50    25    55    1
    51    26    31   ar
    52    26    27   ar
    53    27    28   ar
    54    27    56    1
    55    28    29   ar
    56    28    57    1
    57    29    30   ar
    58    29    58    1
    59    30    31   ar
    60    30    59    1
    61    31    60    1
    62    32    33   ar
    63    32    61    1
    64    33    62    1
