@<TRIPOS>MOLECULE
ZINC000408620144
 66 68 0 0 0
SMALL
GASTEIGER

@<TRIPOS>ATOM
      1 C          -2.1983  -12.4012    5.7947 C.3     1  UNL1       -0.0307
      2 C          -1.3879  -11.1658    5.3971 C.3     1  UNL1        0.0868
      3 O          -1.6145  -10.8714    4.0172 O.3     1  UNL1       -0.4922
      4 C          -0.9642   -9.7954    3.5011 C.ar    1  UNL1        0.1206
      5 C          -0.1207   -9.0421    4.3047 C.ar    1  UNL1       -0.0181
      6 C           0.5395   -7.9492    3.7776 C.ar    1  UNL1       -0.0319
      7 C           0.3601   -7.6056    2.4504 C.ar    1  UNL1        0.1057
      8 S           1.2032   -6.2106    1.7812 S.O2    1  UNL1        0.0616
      9 O           0.4342   -5.7721    0.6697 O.2     1  UNL1       -0.1528
     10 O           1.5272   -5.3718    2.8815 O.2     1  UNL1       -0.1528
     11 N           2.6422   -6.7551    1.1687 N.3     1  UNL1       -0.1635
     12 C           3.7984   -6.9219    2.0528 C.3     1  UNL1        0.0971
     13 C           3.8696   -8.3521    2.5222 C.2     1  UNL1        0.2290
     14 O           3.0365   -9.1532    2.1545 O.2     1  UNL1       -0.2743
     15 N           4.8589   -8.7410    3.3507 N.am    1  UNL1       -0.3116
     16 C           4.9281  -10.1314    3.8071 C.3     1  UNL1        0.0206
     17 H           3.9188  -10.5211    3.9391 H       1  UNL1        0.0495
     18 C           5.6679  -10.9737    2.7659 C.3     1  UNL1       -0.0466
     19 C           5.6773  -10.1941    5.1396 C.3     1  UNL1       -0.0308
     20 C           4.8736   -9.4556    6.2118 C.3     1  UNL1       -0.0260
     21 C           5.6116   -9.5174    7.5243 C.ar    1  UNL1       -0.0473
     22 C           5.3840  -10.5654    8.3966 C.ar    1  UNL1       -0.0586
     23 C           6.0609  -10.6220    9.6005 C.ar    1  UNL1       -0.0615
     24 C           6.9658   -9.6309    9.9320 C.ar    1  UNL1       -0.0617
     25 C           7.1940   -8.5834    9.0593 C.ar    1  UNL1       -0.0615
     26 C           6.5203   -8.5290    7.8535 C.ar    1  UNL1       -0.0586
     27 C           2.7590   -7.0699   -0.2573 C.3     1  UNL1        0.0460
     28 C           3.3279   -5.8817   -0.9891 C.ar    1  UNL1       -0.0317
     29 C           2.4810   -4.9748   -1.5984 C.ar    1  UNL1       -0.0573
     30 C           3.0029   -3.8849   -2.2696 C.ar    1  UNL1       -0.0615
     31 C           4.3716   -3.7016   -2.3313 C.ar    1  UNL1       -0.0617
     32 C           5.2185   -4.6080   -1.7213 C.ar    1  UNL1       -0.0615
     33 C           4.6965   -5.6956   -1.0464 C.ar    1  UNL1       -0.0573
     34 C          -0.4796   -8.3550    1.6473 C.ar    1  UNL1       -0.0319
     35 C          -1.1381   -9.4520    2.1683 C.ar    1  UNL1       -0.0181
     36 H          -1.8879  -13.2506    5.1862 H       1  UNL1        0.0262
     37 H          -2.0255  -12.6258    6.8472 H       1  UNL1        0.0262
     38 H          -3.2588  -12.2072    5.6339 H       1  UNL1        0.0262
     39 H          -1.6982  -10.3164    6.0056 H       1  UNL1        0.0694
     40 H          -0.3274  -11.3598    5.5578 H       1  UNL1        0.0694
     41 H           0.0192   -9.3096    5.3417 H       1  UNL1        0.0655
     42 H           1.1962   -7.3624    4.4028 H       1  UNL1        0.0638
     43 H           4.7100   -6.6719    1.5099 H       1  UNL1        0.0539
     44 H           3.6957   -6.2615    2.9138 H       1  UNL1        0.0539
     45 H           5.5252   -8.1003    3.6448 H       1  UNL1        0.1490
     46 H           5.7194  -12.0082    3.1055 H       1  UNL1        0.0247
     47 H           5.1342  -10.9291    1.8166 H       1  UNL1        0.0247
     48 H           6.6773  -10.5840    2.6339 H       1  UNL1        0.0247
     49 H           5.8066  -11.2353    5.4351 H       1  UNL1        0.0286
     50 H           6.6544   -9.7237    5.0296 H       1  UNL1        0.0286
     51 H           4.7444   -8.4145    5.9163 H       1  UNL1        0.0314
     52 H           3.8966   -9.9261    6.3219 H       1  UNL1        0.0314
     53 H           4.6771  -11.3397    8.1376 H       1  UNL1        0.0620
     54 H           5.8826  -11.4404   10.2823 H       1  UNL1        0.0618
     55 H           7.4941   -9.6748   10.8729 H       1  UNL1        0.0618
     56 H           7.9007   -7.8089    9.3185 H       1  UNL1        0.0618
     57 H           6.6986   -7.7107    7.1717 H       1  UNL1        0.0620
     58 H           3.4197   -7.9271   -0.3872 H       1  UNL1        0.0493
     59 H           1.7738   -7.3065   -0.6591 H       1  UNL1        0.0493
     60 H           1.4116   -5.1180   -1.5502 H       1  UNL1        0.0621
     61 H           2.3412   -3.1768   -2.7462 H       1  UNL1        0.0618
     62 H           4.7794   -2.8505   -2.8564 H       1  UNL1        0.0618
     63 H           6.2879   -4.4650   -1.7698 H       1  UNL1        0.0618
     64 H           5.3582   -6.4038   -0.5698 H       1  UNL1        0.0621
     65 H          -0.6179   -8.0848    0.6108 H       1  UNL1        0.0638
     66 H          -1.7939  -10.0371    1.5406 H       1  UNL1        0.0655
@<TRIPOS>BOND
     1     1     2    1
     2     1    36    1
     3     1    37    1
     4     1    38    1
     5     2     3    1
     6     2    39    1
     7     2    40    1
     8     3     4    1
     9     4    35   ar
    10     4     5   ar
    11     5     6   ar
    12     5    41    1
    13     6     7   ar
    14     6    42    1
    15     7     8    1
    16     7    34   ar
    17     8     9    2
    18     8    10    2
    19     8    11    1
    20    11    12    1
    21    11    27    1
    22    12    13    1
    23    12    43    1
    24    12    44    1
    25    13    14    2
    26    13    15   am
    27    15    16    1
    28    15    45    1
    29    16    17    1
    30    16    18    1
    31    16    19    1
    32    18    46    1
    33    18    47    1
    34    18    48    1
    35    19    20    1
    36    19    49    1
    37    19    50    1
    38    20    21    1
    39    20    51    1
    40    20    52    1
    41    21    26   ar
    42    21    22   ar
    43    22    23   ar
    44    22    53    1
    45    23    24   ar
    46    23    54    1
    47    24    25   ar
    48    24    55    1
    49    25    26   ar
    50    25    56    1
    51    26    57    1
    52    27    28    1
    53    27    58    1
    54    27    59    1
    55    28    33   ar
    56    28    29   ar
    57    29    30   ar
    58    29    60    1
    59    30    31   ar
    60    30    61    1
    61    31    32   ar
    62    31    62    1
    63    32    33   ar
    64    32    63    1
    65    33    64    1
    66    34    35   ar
    67    34    65    1
    68    35    66    1
