@<TRIPOS>MOLECULE
ZINC000072462892
 41 43 0 0 0
SMALL
GASTEIGER

@<TRIPOS>ATOM
      1 C          -0.0178    1.4608    0.0101 C.3     1  UNL1        0.0035
      2 N           0.0021   -0.0041    0.0020 N.am    1  UNL1       -0.2999
      3 C           0.0062   -0.7004   -1.1609 C.2     1  UNL1        0.2200
      4 O          -0.0091   -0.1365   -2.2345 O.2     1  UNL1       -0.2753
      5 C           0.0312   -2.2088   -1.0645 C.3     1  UNL1        0.0501
      6 H           0.2816   -2.6212   -2.0418 H       1  UNL1        0.0407
      7 C           1.0781   -2.6547   -0.0587 C.3     1  UNL1       -0.0390
      8 C           1.0569   -1.8504    1.2272 C.3     1  UNL1       -0.0323
      9 C           0.0244   -0.7720    1.2534 C.3     1  UNL1        0.0401
     10 H           0.2446   -0.0995    2.0824 H       1  UNL1        0.0513
     11 C          -1.3736   -1.3553    1.4569 C.3     1  UNL1        0.0391
     12 N          -1.4871   -2.6223    0.7301 N.3     1  UNL1       -0.1741
     13 S          -1.8070   -4.0202    1.5583 S.O2    1  UNL1        0.0609
     14 O          -1.3238   -5.0847    0.7505 O.2     1  UNL1       -0.1528
     15 O          -1.3772   -3.8020    2.8950 O.2     1  UNL1       -0.1528
     16 C          -3.5588   -4.1994    1.6219 C.ar    1  UNL1        0.1055
     17 C          -4.2721   -3.6505    2.6710 C.ar    1  UNL1       -0.0348
     18 C          -5.6463   -3.7911    2.7209 C.ar    1  UNL1       -0.0483
     19 C          -6.3073   -4.4802    1.7214 C.ar    1  UNL1        0.0549
     20 C          -7.8055   -4.6339    1.7761 C.3     1  UNL1        0.4174
     21 F          -8.4089   -3.5603    1.1124 F       1  UNL1       -0.1659
     22 F          -8.1742   -5.8324    1.1556 F       1  UNL1       -0.1659
     23 F          -8.2241   -4.6518    3.1109 F       1  UNL1       -0.1659
     24 C          -5.5942   -5.0280    0.6715 C.ar    1  UNL1       -0.0483
     25 C          -4.2203   -4.8841    0.6197 C.ar    1  UNL1       -0.0348
     26 C          -1.3508   -2.7164   -0.6513 C.3     1  UNL1        0.0317
     27 H           1.0048    1.8381    0.0023 H       1  UNL1        0.0429
     28 H          -0.5450    1.8219   -0.8730 H       1  UNL1        0.0429
     29 H          -0.5280    1.8123    0.9069 H       1  UNL1        0.0429
     30 H           0.9070   -3.7039    0.1822 H       1  UNL1        0.0273
     31 H           2.0637   -2.5595   -0.5145 H       1  UNL1        0.0273
     32 H           0.8851   -2.5309    2.0611 H       1  UNL1        0.0284
     33 H           2.0311   -1.3800    1.3601 H       1  UNL1        0.0284
     34 H          -1.5430   -1.5298    2.5194 H       1  UNL1        0.0462
     35 H          -2.1181   -0.6534    1.0813 H       1  UNL1        0.0462
     36 H          -3.7556   -3.1120    3.4519 H       1  UNL1        0.0637
     37 H          -6.2035   -3.3628    3.5410 H       1  UNL1        0.0624
     38 H          -6.1107   -5.5661   -0.1095 H       1  UNL1        0.0624
     39 H          -3.6631   -5.3120   -0.2006 H       1  UNL1        0.0637
     40 H          -2.1035   -2.0931   -1.1340 H       1  UNL1        0.0451
     41 H          -1.4850   -3.7531   -0.9600 H       1  UNL1        0.0451
@<TRIPOS>BOND
     1     1     2    1
     2     1    27    1
     3     1    28    1
     4     1    29    1
     5     2     9    1
     6     2     3   am
     7     3     4    2
     8     3     5    1
     9     5     6    1
    10     5    26    1
    11     5     7    1
    12     7     8    1
    13     7    30    1
    14     7    31    1
    15     8     9    1
    16     8    32    1
    17     8    33    1
    18     9    10    1
    19     9    11    1
    20    11    12    1
    21    11    34    1
    22    11    35    1
    23    13    12    1
    24    12    26    1
    25    13    14    2
    26    13    15    2
    27    13    16    1
    28    16    25   ar
    29    16    17   ar
    30    17    18   ar
    31    17    36    1
    32    18    19   ar
    33    18    37    1
    34    19    20    1
    35    19    24   ar
    36    20    21    1
    37    20    22    1
    38    20    23    1
    39    24    25   ar
    40    24    38    1
    41    25    39    1
    42    26    40    1
    43    26    41    1
