@<TRIPOS>MOLECULE
ZINC000096245396
 50 53 0 0 0
SMALL
GASTEIGER

@<TRIPOS>ATOM
      1 O           0.0021   -0.0041    0.0020 O.2     1  UNL1       -0.1528
      2 S          -0.0172    1.4168    0.0098 S.O2    1  UNL1        0.0609
      3 O           1.1617    2.2101    0.0028 O.2     1  UNL1       -0.1528
      4 C          -0.9567    1.9094   -1.3970 C.ar    1  UNL1        0.1055
      5 C          -1.8848    1.0442   -1.9458 C.ar    1  UNL1       -0.0353
      6 C          -2.6219    1.4307   -3.0496 C.ar    1  UNL1       -0.0599
      7 C          -2.4313    2.6825   -3.6042 C.ar    1  UNL1       -0.0616
      8 C          -1.5039    3.5480   -3.0548 C.ar    1  UNL1       -0.0599
      9 C          -0.7699    3.1631   -1.9485 C.ar    1  UNL1       -0.0353
     10 N          -0.8748    1.8654    1.3536 N.3     1  UNL1       -0.1757
     11 C          -0.7627    3.1577    2.0376 C.3     1  UNL1        0.0286
     12 C          -2.0102    3.3105    2.9192 C.3     1  UNL1        0.0224
     13 H          -1.8192    3.8850    3.8256 H       1  UNL1        0.0371
     14 C          -3.1760    3.8826    2.0808 C.3     1  UNL1       -0.0270
     15 N          -4.3758    3.2745    2.7117 N.4     1  UNL1        0.2390
     16 H          -4.6188    3.7766    3.5525 H       1  UNL1        0.2037
     17 C          -5.5036    3.2862    1.7705 C.3     1  UNL1       -0.0059
     18 C          -6.7420    2.7802    2.4642 C.ar    1  UNL1       -0.0029
     19 C          -7.0385    1.4300    2.4516 C.ar    1  UNL1       -0.0530
     20 C          -8.1745    0.9659    3.0879 C.ar    1  UNL1       -0.0497
     21 C          -9.0139    1.8518    3.7372 C.ar    1  UNL1        0.0548
     22 C         -10.2526    1.3459    4.4304 C.3     1  UNL1        0.4174
     23 F          -9.9467    1.0267    5.7578 F       1  UNL1       -0.1659
     24 F         -11.2393    2.3374    4.4047 F       1  UNL1       -0.1659
     25 F         -10.7218    0.2039    3.7724 F       1  UNL1       -0.1659
     26 C          -8.7166    3.2018    3.7510 C.ar    1  UNL1       -0.0497
     27 C          -7.5786    3.6654    3.1179 C.ar    1  UNL1       -0.0530
     28 C          -3.9986    1.8833    3.0401 C.3     1  UNL1       -0.0270
     29 C          -2.4534    1.8481    3.2069 C.3     1  UNL1        0.0224
     30 H          -2.1446    1.4784    4.1847 H       1  UNL1        0.0371
     31 C          -1.8678    1.0354    2.0399 C.3     1  UNL1        0.0286
     32 H          -2.0336    0.0662   -1.5125 H       1  UNL1        0.0637
     33 H          -3.3464    0.7545   -3.4788 H       1  UNL1        0.0618
     34 H          -3.0067    2.9841   -4.4670 H       1  UNL1        0.0618
     35 H          -1.3548    4.5258   -3.4884 H       1  UNL1        0.0618
     36 H          -0.0453    3.8393   -1.5193 H       1  UNL1        0.0637
     37 H           0.1340    3.1733    2.6572 H       1  UNL1        0.0449
     38 H          -0.7249    3.9637    1.3048 H       1  UNL1        0.0449
     39 H          -3.2091    4.9693    2.1586 H       1  UNL1        0.0818
     40 H          -3.0897    3.5725    1.0394 H       1  UNL1        0.0818
     41 H          -5.6737    4.3041    1.4199 H       1  UNL1        0.0867
     42 H          -5.2744    2.6428    0.9210 H       1  UNL1        0.0867
     43 H          -6.3828    0.7379    1.9443 H       1  UNL1        0.0622
     44 H          -8.4065   -0.0888    3.0774 H       1  UNL1        0.0623
     45 H          -9.3722    3.8939    4.2586 H       1  UNL1        0.0623
     46 H          -7.3464    4.7201    3.1287 H       1  UNL1        0.0622
     47 H          -4.4701    1.5824    3.9756 H       1  UNL1        0.0818
     48 H          -4.3073    1.2158    2.2355 H       1  UNL1        0.0818
     49 H          -2.6614    0.7715    1.3409 H       1  UNL1        0.0449
     50 H          -1.3990    0.1286    2.4220 H       1  UNL1        0.0449
@<TRIPOS>UNITY_ATOM_ATTR
15 1
charge 1
@<TRIPOS>BOND
     1     1     2    2
     2     2     3    2
     3     2     4    1
     4     2    10    1
     5     4     9   ar
     6     4     5   ar
     7     5     6   ar
     8     5    32    1
     9     6     7   ar
    10     6    33    1
    11     7     8   ar
    12     7    34    1
    13     8     9   ar
    14     8    35    1
    15     9    36    1
    16    10    31    1
    17    10    11    1
    18    11    12    1
    19    11    37    1
    20    11    38    1
    21    12    13    1
    22    12    29    1
    23    12    14    1
    24    14    15    1
    25    14    39    1
    26    14    40    1
    27    15    16    1
    28    15    17    1
    29    15    28    1
    30    17    18    1
    31    17    41    1
    32    17    42    1
    33    18    27   ar
    34    18    19   ar
    35    19    20   ar
    36    19    43    1
    37    20    21   ar
    38    20    44    1
    39    21    22    1
    40    21    26   ar
    41    22    23    1
    42    22    24    1
    43    22    25    1
    44    26    27   ar
    45    26    45    1
    46    27    46    1
    47    28    29    1
    48    28    47    1
    49    28    48    1
    50    29    30    1
    51    29    31    1
    52    31    49    1
    53    31    50    1
