@<TRIPOS>MOLECULE
ZINC000010365453
 61 62 0 0 0
SMALL
GASTEIGER

@<TRIPOS>ATOM
      1 C           1.7503   -1.8472   -5.3054 C.3     1  UNL1       -0.0507
      2 C           1.3980   -2.5221   -3.9783 C.3     1  UNL1        0.0177
      3 N           0.0444   -2.1320   -3.5762 N.3     1  UNL1       -0.1771
      4 C          -1.1135   -2.8644   -4.0948 C.3     1  UNL1        0.0177
      5 C          -1.3686   -4.0970   -3.2250 C.3     1  UNL1       -0.0507
      6 S          -0.1767   -0.8630   -2.5354 S.O2    1  UNL1        0.0608
      7 O          -1.4403   -1.0661   -1.9179 O.2     1  UNL1       -0.1528
      8 O           1.0337   -0.7290   -1.8032 O.2     1  UNL1       -0.1528
      9 C          -0.3298    0.5939   -3.5145 C.ar    1  UNL1        0.1056
     10 C           0.7970    1.3229   -3.8476 C.ar    1  UNL1       -0.0336
     11 C           0.6804    2.4653   -4.6149 C.ar    1  UNL1       -0.0386
     12 C          -0.5702    2.8815   -5.0522 C.ar    1  UNL1        0.0335
     13 N          -0.6918    4.0383   -5.8301 N.am    1  UNL1       -0.2855
     14 C           0.2854    4.3742   -6.6954 C.2     1  UNL1        0.2175
     15 O           1.2240    3.6263   -6.8704 O.2     1  UNL1       -0.2755
     16 C           0.2116    5.6791   -7.4457 C.3     1  UNL1        0.0282
     17 C           1.4351    5.8147   -8.3544 C.3     1  UNL1       -0.0194
     18 C           1.3614    7.1196   -9.1046 C.ar    1  UNL1       -0.0469
     19 C           0.7256    7.1770  -10.3308 C.ar    1  UNL1       -0.0583
     20 C           0.6580    8.3739  -11.0190 C.ar    1  UNL1       -0.0578
     21 C           1.2257    9.5137  -10.4808 C.ar    1  UNL1       -0.0420
     22 C           1.1525   10.8184  -11.2313 C.3     1  UNL1       -0.0127
     23 C          -0.3131   11.2016  -11.4461 C.3     1  UNL1       -0.0560
     24 C           1.8522   11.9122  -10.4220 C.3     1  UNL1       -0.0560
     25 C           1.8439   10.6662  -12.5876 C.3     1  UNL1       -0.0560
     26 C           1.8603    9.4566   -9.2540 C.ar    1  UNL1       -0.0578
     27 C           1.9245    8.2605   -8.5641 C.ar    1  UNL1       -0.0583
     28 C          -1.6999    2.1470   -4.7163 C.ar    1  UNL1       -0.0386
     29 C          -1.5760    1.0028   -3.9528 C.ar    1  UNL1       -0.0336
     30 H           1.0399   -2.1584   -6.0712 H       1  UNL1        0.0243
     31 H           1.7046   -0.7647   -5.1859 H       1  UNL1        0.0243
     32 H           2.7574   -2.1375   -5.6046 H       1  UNL1        0.0243
     33 H           1.4437   -3.6046   -4.0979 H       1  UNL1        0.0441
     34 H           2.1085   -2.2109   -3.2125 H       1  UNL1        0.0441
     35 H          -1.9909   -2.2179   -4.0750 H       1  UNL1        0.0441
     36 H          -0.9160   -3.1776   -5.1199 H       1  UNL1        0.0441
     37 H          -2.2302   -4.6419   -3.6109 H       1  UNL1        0.0243
     38 H          -0.4912   -4.7435   -3.2448 H       1  UNL1        0.0243
     39 H          -1.5662   -3.7838   -2.1999 H       1  UNL1        0.0243
     40 H           1.7693    0.9987   -3.5072 H       1  UNL1        0.0638
     41 H           1.5608    3.0346   -4.8741 H       1  UNL1        0.0637
     42 H          -1.4793    4.5984   -5.7465 H       1  UNL1        0.1548
     43 H          -0.6946    5.6995   -8.0510 H       1  UNL1        0.0362
     44 H           0.1930    6.5059   -6.7356 H       1  UNL1        0.0362
     45 H           2.3413    5.7943   -7.7491 H       1  UNL1        0.0318
     46 H           1.4537    4.9879   -9.0644 H       1  UNL1        0.0318
     47 H           0.2821    6.2865  -10.7513 H       1  UNL1        0.0620
     48 H           0.1620    8.4186  -11.9773 H       1  UNL1        0.0621
     49 H          -0.8057   11.3101  -10.4798 H       1  UNL1        0.0238
     50 H          -0.3661   12.1454  -11.9889 H       1  UNL1        0.0238
     51 H          -0.8116   10.4224  -12.0226 H       1  UNL1        0.0238
     52 H           2.8963   11.6393  -10.2690 H       1  UNL1        0.0238
     53 H           1.7992   12.8560  -10.9648 H       1  UNL1        0.0238
     54 H           1.3596   12.0207   -9.4558 H       1  UNL1        0.0238
     55 H           1.3454    9.8870  -13.1641 H       1  UNL1        0.0238
     56 H           1.7909   11.6099  -13.1304 H       1  UNL1        0.0238
     57 H           2.8880   10.3932  -12.4346 H       1  UNL1        0.0238
     58 H           2.3035   10.3471   -8.8334 H       1  UNL1        0.0621
     59 H           2.4203    8.2159   -7.6056 H       1  UNL1        0.0620
     60 H          -2.6739    2.4681   -5.0549 H       1  UNL1        0.0637
     61 H          -2.4541    0.4311   -3.6912 H       1  UNL1        0.0638
@<TRIPOS>BOND
     1     1     2    1
     2     1    30    1
     3     1    31    1
     4     1    32    1
     5     2     3    1
     6     2    33    1
     7     2    34    1
     8     3     4    1
     9     6     3    1
    10     4     5    1
    11     4    35    1
    12     4    36    1
    13     5    37    1
    14     5    38    1
    15     5    39    1
    16     6     7    2
    17     6     8    2
    18     6     9    1
    19     9    29   ar
    20     9    10   ar
    21    10    11   ar
    22    10    40    1
    23    11    12   ar
    24    11    41    1
    25    12    13    1
    26    12    28   ar
    27    13    14   am
    28    13    42    1
    29    14    15    2
    30    14    16    1
    31    16    17    1
    32    16    43    1
    33    16    44    1
    34    17    18    1
    35    17    45    1
    36    17    46    1
    37    18    27   ar
    38    18    19   ar
    39    19    20   ar
    40    19    47    1
    41    20    21   ar
    42    20    48    1
    43    22    21    1
    44    21    26   ar
    45    22    23    1
    46    22    24    1
    47    22    25    1
    48    23    49    1
    49    23    50    1
    50    23    51    1
    51    24    52    1
    52    24    53    1
    53    24    54    1
    54    25    55    1
    55    25    56    1
    56    25    57    1
    57    26    27   ar
    58    26    58    1
    59    27    59    1
    60    28    29   ar
    61    28    60    1
    62    29    61    1
