@<TRIPOS>MOLECULE
ZINC000000857069
 58 60 0 0 0
SMALL
GASTEIGER

@<TRIPOS>ATOM
      1 C          -0.0173    1.4248    0.0099 C.3     1  UNL1        0.0788
      2 O           0.0021   -0.0041    0.0020 O.3     1  UNL1       -0.4951
      3 C           0.6258   -0.6184    1.0415 C.ar    1  UNL1        0.1202
      4 C           1.2022    0.1384    2.0513 C.ar    1  UNL1       -0.0181
      5 C           1.8353   -0.4884    3.1070 C.ar    1  UNL1       -0.0319
      6 C           1.8951   -1.8688    3.1577 C.ar    1  UNL1        0.1057
      7 S           2.7038   -2.6653    4.5054 S.O2    1  UNL1        0.0613
      8 O           3.0893   -3.9510    4.0389 O.2     1  UNL1       -0.1528
      9 O           3.6254   -1.7219    5.0345 O.2     1  UNL1       -0.1528
     10 N           1.5649   -2.9166    5.6811 N.3     1  UNL1       -0.1675
     11 C           0.7891   -4.1592    5.6958 C.3     1  UNL1        0.0250
     12 C           1.4543   -5.1647    6.6378 C.3     1  UNL1       -0.0132
     13 C           0.6562   -6.4429    6.6529 C.ar    1  UNL1       -0.0461
     14 C          -0.3682   -6.6073    7.5663 C.ar    1  UNL1       -0.0585
     15 C          -1.1003   -7.7798    7.5802 C.ar    1  UNL1       -0.0615
     16 C          -0.8082   -8.7877    6.6803 C.ar    1  UNL1       -0.0617
     17 C           0.2156   -8.6229    5.7663 C.ar    1  UNL1       -0.0615
     18 C           0.9449   -7.4487    5.7496 C.ar    1  UNL1       -0.0585
     19 C           1.3333   -1.8962    6.7066 C.3     1  UNL1        0.0968
     20 C           0.1851   -1.0146    6.2877 C.2     1  UNL1        0.2289
     21 O          -0.3837   -1.2185    5.2361 O.2     1  UNL1       -0.2743
     22 N          -0.2096    0.0004    7.0816 N.am    1  UNL1       -0.3117
     23 C          -1.3258    0.8575    6.6744 C.3     1  UNL1        0.0379
     24 C          -1.5677    1.9231    7.7453 C.3     1  UNL1        0.0742
     25 H          -0.6723    2.5290    7.8842 H       1  UNL1        0.0611
     26 C          -2.7680    2.8198    7.3503 C.3     1  UNL1       -0.0231
     27 C          -3.2276    3.3279    8.7441 C.3     1  UNL1       -0.0271
     28 C          -2.9304    2.1136    9.6499 C.3     1  UNL1        0.0482
     29 O          -1.9496    1.3063    8.9851 O.3     1  UNL1       -0.3750
     30 C           1.3210   -2.6254    2.1528 C.ar    1  UNL1       -0.0319
     31 C           0.6822   -2.0034    1.0976 C.ar    1  UNL1       -0.0181
     32 H           1.0053    1.8021    0.0021 H       1  UNL1        0.0660
     33 H          -0.5445    1.7859   -0.8732 H       1  UNL1        0.0660
     34 H          -0.5275    1.7763    0.9067 H       1  UNL1        0.0660
     35 H           1.1564    1.2167    2.0118 H       1  UNL1        0.0655
     36 H           2.2842    0.1003    3.8934 H       1  UNL1        0.0638
     37 H          -0.2232   -3.9514    6.0424 H       1  UNL1        0.0447
     38 H           0.7502   -4.5752    4.6891 H       1  UNL1        0.0447
     39 H           2.4666   -5.3725    6.2912 H       1  UNL1        0.0326
     40 H           1.4932   -4.7487    7.6446 H       1  UNL1        0.0326
     41 H          -0.5964   -5.8199    8.2694 H       1  UNL1        0.0620
     42 H          -1.9002   -7.9086    8.2943 H       1  UNL1        0.0618
     43 H          -1.3797   -9.7040    6.6916 H       1  UNL1        0.0618
     44 H           0.4441   -9.4105    5.0635 H       1  UNL1        0.0618
     45 H           1.7448   -7.3199    5.0355 H       1  UNL1        0.0620
     46 H           1.0931   -2.3804    7.6531 H       1  UNL1        0.0539
     47 H           2.2317   -1.2906    6.8259 H       1  UNL1        0.0539
     48 H           0.2453    0.1635    7.9226 H       1  UNL1        0.1488
     49 H          -1.0855    1.3416    5.7278 H       1  UNL1        0.0487
     50 H          -2.2241    0.2519    6.5550 H       1  UNL1        0.0487
     51 H          -2.4486    3.6469    6.7163 H       1  UNL1        0.0291
     52 H          -3.5517    2.2365    6.8668 H       1  UNL1        0.0291
     53 H          -2.6432    4.1946    9.0530 H       1  UNL1        0.0288
     54 H          -4.2930    3.5581    8.7411 H       1  UNL1        0.0288
     55 H          -2.5388    2.4543   10.6083 H       1  UNL1        0.0560
     56 H          -3.8419    1.5365    9.8055 H       1  UNL1        0.0560
     57 H           1.3687   -3.7035    2.1948 H       1  UNL1        0.0638
     58 H           0.2339   -2.5948    0.3129 H       1  UNL1        0.0655
@<TRIPOS>BOND
     1     1     2    1
     2     1    32    1
     3     1    33    1
     4     1    34    1
     5     2     3    1
     6     3    31   ar
     7     3     4   ar
     8     4     5   ar
     9     4    35    1
    10     5     6   ar
    11     5    36    1
    12     6     7    1
    13     6    30   ar
    14     7     8    2
    15     7     9    2
    16     7    10    1
    17    10    11    1
    18    10    19    1
    19    11    12    1
    20    11    37    1
    21    11    38    1
    22    12    13    1
    23    12    39    1
    24    12    40    1
    25    13    18   ar
    26    13    14   ar
    27    14    15   ar
    28    14    41    1
    29    15    16   ar
    30    15    42    1
    31    16    17   ar
    32    16    43    1
    33    17    18   ar
    34    17    44    1
    35    18    45    1
    36    19    20    1
    37    19    46    1
    38    19    47    1
    39    20    21    2
    40    20    22   am
    41    22    23    1
    42    22    48    1
    43    23    24    1
    44    23    49    1
    45    23    50    1
    46    24    25    1
    47    24    29    1
    48    24    26    1
    49    26    27    1
    50    26    51    1
    51    26    52    1
    52    27    28    1
    53    27    53    1
    54    27    54    1
    55    28    29    1
    56    28    55    1
    57    28    56    1
    58    30    31   ar
    59    30    57    1
    60    31    58    1
