@<TRIPOS>MOLECULE
ZINC000408614162
 59 61 0 0 0
SMALL
GASTEIGER

@<TRIPOS>ATOM
      1 C          -0.0187    1.5258    0.0104 C.3     1  UNL1       -0.0466
      2 C           0.0021   -0.0041    0.0020 C.3     1  UNL1        0.0206
      3 H           0.5123   -0.3556   -0.8948 H       1  UNL1        0.0495
      4 C           0.7421   -0.5109    1.2415 C.3     1  UNL1       -0.0308
      5 C           0.8719   -2.0337    1.1708 C.3     1  UNL1       -0.0260
      6 C           1.6008   -2.5330    2.3917 C.ar    1  UNL1       -0.0473
      7 C           2.9789   -2.6409    2.3781 C.ar    1  UNL1       -0.0586
      8 C           3.6475   -3.0988    3.4980 C.ar    1  UNL1       -0.0615
      9 C           2.9380   -3.4484    4.6317 C.ar    1  UNL1       -0.0617
     10 C           1.5600   -3.3396    4.6457 C.ar    1  UNL1       -0.0615
     11 C           0.8918   -2.8776    3.5272 C.ar    1  UNL1       -0.0586
     12 N          -1.3723   -0.5112    0.0124 N.am    1  UNL1       -0.3116
     13 C          -2.0508   -0.6427   -1.1446 C.2     1  UNL1        0.2290
     14 O          -1.5236   -0.3413   -2.1944 O.2     1  UNL1       -0.2743
     15 C          -3.4646   -1.1643   -1.1339 C.3     1  UNL1        0.0971
     16 N          -3.9776   -1.2130   -2.5053 N.3     1  UNL1       -0.1635
     17 C          -3.7030   -2.3787   -3.3491 C.3     1  UNL1        0.0460
     18 C          -4.7315   -3.4469   -3.0803 C.ar    1  UNL1       -0.0317
     19 C          -4.5071   -4.3901   -2.0949 C.ar    1  UNL1       -0.0573
     20 C          -5.4505   -5.3699   -1.8483 C.ar    1  UNL1       -0.0615
     21 C          -6.6185   -5.4063   -2.5867 C.ar    1  UNL1       -0.0617
     22 C          -6.8434   -4.4625   -3.5715 C.ar    1  UNL1       -0.0615
     23 C          -5.9018   -3.4801   -3.8152 C.ar    1  UNL1       -0.0573
     24 S          -4.8677    0.0496   -3.1018 S.O2    1  UNL1        0.0616
     25 O          -5.6571   -0.4796   -4.1582 O.2     1  UNL1       -0.1528
     26 O          -5.4223    0.7166   -1.9762 O.2     1  UNL1       -0.1528
     27 C          -3.7377    1.1801   -3.8431 C.ar    1  UNL1        0.1057
     28 C          -3.1779    2.1929   -3.0869 C.ar    1  UNL1       -0.0326
     29 C          -2.2915    3.0802   -3.6672 C.ar    1  UNL1       -0.0246
     30 C          -1.9638    2.9542   -5.0066 C.ar    1  UNL1        0.1235
     31 F          -1.0971    3.8208   -5.5749 F       1  UNL1       -0.2055
     32 C          -2.5248    1.9392   -5.7629 C.ar    1  UNL1       -0.0246
     33 C          -3.4073    1.0501   -5.1792 C.ar    1  UNL1       -0.0326
     34 H           1.0039    1.9031    0.0027 H       1  UNL1        0.0247
     35 H          -0.5459    1.8868   -0.8726 H       1  UNL1        0.0247
     36 H          -0.5289    1.8773    0.9072 H       1  UNL1        0.0247
     37 H           1.7350   -0.0630    1.2804 H       1  UNL1        0.0286
     38 H           0.1838   -0.2350    2.1361 H       1  UNL1        0.0286
     39 H          -0.1210   -2.4817    1.1320 H       1  UNL1        0.0314
     40 H           1.4302   -2.3096    0.2763 H       1  UNL1        0.0314
     41 H           3.5331   -2.3677    1.4923 H       1  UNL1        0.0620
     42 H           4.7241   -3.1838    3.4870 H       1  UNL1        0.0618
     43 H           3.4603   -3.8068    5.5064 H       1  UNL1        0.0618
     44 H           1.0057   -3.6130    5.5313 H       1  UNL1        0.0618
     45 H          -0.1848   -2.7926    3.5382 H       1  UNL1        0.0620
     46 H          -1.7940   -0.7522    0.8520 H       1  UNL1        0.1490
     47 H          -3.4790   -2.1662   -0.7048 H       1  UNL1        0.0539
     48 H          -4.0912   -0.5035   -0.5349 H       1  UNL1        0.0539
     49 H          -3.7483   -2.0866   -4.3983 H       1  UNL1        0.0493
     50 H          -2.7096   -2.7656   -3.1222 H       1  UNL1        0.0493
     51 H          -3.5945   -4.3617   -1.5180 H       1  UNL1        0.0621
     52 H          -5.2749   -6.1072   -1.0789 H       1  UNL1        0.0618
     53 H          -7.3553   -6.1722   -2.3945 H       1  UNL1        0.0618
     54 H          -7.7558   -4.4912   -4.1486 H       1  UNL1        0.0618
     55 H          -6.0775   -2.7428   -4.5845 H       1  UNL1        0.0621
     56 H          -3.4336    2.2910   -2.0422 H       1  UNL1        0.0638
     57 H          -1.8548    3.8718   -3.0764 H       1  UNL1        0.0647
     58 H          -2.2702    1.8401   -6.8078 H       1  UNL1        0.0647
     59 H          -3.8447    0.2581   -5.7688 H       1  UNL1        0.0638
@<TRIPOS>BOND
     1     1     2    1
     2     1    34    1
     3     1    35    1
     4     1    36    1
     5     2     3    1
     6     2     4    1
     7     2    12    1
     8     4     5    1
     9     4    37    1
    10     4    38    1
    11     5     6    1
    12     5    39    1
    13     5    40    1
    14     6    11   ar
    15     6     7   ar
    16     7     8   ar
    17     7    41    1
    18     8     9   ar
    19     8    42    1
    20     9    10   ar
    21     9    43    1
    22    10    11   ar
    23    10    44    1
    24    11    45    1
    25    12    13   am
    26    12    46    1
    27    13    14    2
    28    13    15    1
    29    15    16    1
    30    15    47    1
    31    15    48    1
    32    16    17    1
    33    24    16    1
    34    17    18    1
    35    17    49    1
    36    17    50    1
    37    18    23   ar
    38    18    19   ar
    39    19    20   ar
    40    19    51    1
    41    20    21   ar
    42    20    52    1
    43    21    22   ar
    44    21    53    1
    45    22    23   ar
    46    22    54    1
    47    23    55    1
    48    24    25    2
    49    24    26    2
    50    24    27    1
    51    27    33   ar
    52    27    28   ar
    53    28    29   ar
    54    28    56    1
    55    29    30   ar
    56    29    57    1
    57    30    31    1
    58    30    32   ar
    59    32    33   ar
    60    32    58    1
    61    33    59    1
