@<TRIPOS>MOLECULE
ZINC000096245398
 50 53 0 0 0
SMALL
GASTEIGER

@<TRIPOS>ATOM
      1 O           0.0021   -0.0041    0.0020 O.2     1  UNL1       -0.1528
      2 S          -0.0172    1.4168    0.0098 S.O2    1  UNL1        0.0609
      3 O           1.1617    2.2101    0.0028 O.2     1  UNL1       -0.1528
      4 C          -0.9567    1.9094   -1.3970 C.ar    1  UNL1        0.1055
      5 C          -1.8848    1.0442   -1.9458 C.ar    1  UNL1       -0.0353
      6 C          -2.6219    1.4307   -3.0496 C.ar    1  UNL1       -0.0599
      7 C          -2.4313    2.6825   -3.6042 C.ar    1  UNL1       -0.0616
      8 C          -1.5039    3.5480   -3.0548 C.ar    1  UNL1       -0.0599
      9 C          -0.7699    3.1631   -1.9485 C.ar    1  UNL1       -0.0353
     10 N          -0.8748    1.8654    1.3536 N.3     1  UNL1       -0.1757
     11 C          -0.7770    3.1784    2.0683 C.3     1  UNL1        0.0286
     12 C          -2.1505    3.3002    2.6978 C.3     1  UNL1        0.0224
     13 H          -2.9187    3.4804    1.9458 H       1  UNL1        0.0371
     14 C          -2.4286    4.0743    3.9690 C.3     1  UNL1       -0.0270
     15 N          -3.5892    3.3238    4.5542 N.4     1  UNL1        0.2390
     16 H          -4.4554    3.7506    4.2615 H       1  UNL1        0.2037
     17 C          -3.4993    3.3317    6.0205 C.3     1  UNL1       -0.0059
     18 C          -4.5973    2.4746    6.5957 C.ar    1  UNL1       -0.0029
     19 C          -5.8261    3.0333    6.8934 C.ar    1  UNL1       -0.0530
     20 C          -6.8333    2.2471    7.4211 C.ar    1  UNL1       -0.0497
     21 C          -6.6117    0.9021    7.6506 C.ar    1  UNL1        0.0548
     22 C          -7.7095    0.0450    8.2263 C.3     1  UNL1        0.4174
     23 F          -8.4716   -0.4976    7.1861 F       1  UNL1       -0.1659
     24 F          -7.1462   -0.9898    8.9807 F       1  UNL1       -0.1659
     25 F          -8.5299    0.8269    9.0466 F       1  UNL1       -0.1659
     26 C          -5.3833    0.3430    7.3516 C.ar    1  UNL1       -0.0497
     27 C          -4.3774    1.1284    6.8203 C.ar    1  UNL1       -0.0530
     28 C          -3.5201    1.9162    4.0478 C.3     1  UNL1       -0.0270
     29 C          -2.2287    1.8342    3.2925 C.3     1  UNL1        0.0224
     30 H          -1.4086    1.7365    4.0038 H       1  UNL1        0.0371
     31 C          -1.8921    1.0359    2.0701 C.3     1  UNL1        0.0286
     32 H          -2.0336    0.0662   -1.5125 H       1  UNL1        0.0637
     33 H          -3.3464    0.7545   -3.4788 H       1  UNL1        0.0618
     34 H          -3.0067    2.9841   -4.4670 H       1  UNL1        0.0618
     35 H          -1.3548    4.5258   -3.4884 H       1  UNL1        0.0618
     36 H          -0.0453    3.8393   -1.5193 H       1  UNL1        0.0637
     37 H          -0.0002    3.1485    2.8324 H       1  UNL1        0.0449
     38 H          -0.5979    3.9917    1.3651 H       1  UNL1        0.0449
     39 H          -1.5690    4.0420    4.6384 H       1  UNL1        0.0818
     40 H          -2.7069    5.1036    3.7431 H       1  UNL1        0.0818
     41 H          -2.5311    2.9361    6.3273 H       1  UNL1        0.0867
     42 H          -3.6068    4.3531    6.3855 H       1  UNL1        0.0867
     43 H          -5.9992    4.0842    6.7141 H       1  UNL1        0.0622
     44 H          -7.7931    2.6838    7.6544 H       1  UNL1        0.0623
     45 H          -5.2103   -0.7079    7.5305 H       1  UNL1        0.0623
     46 H          -3.4177    0.6917    6.5867 H       1  UNL1        0.0622
     47 H          -3.5287    1.2120    4.8797 H       1  UNL1        0.0818
     48 H          -4.3493    1.7150    3.3696 H       1  UNL1        0.0818
     49 H          -2.7795    0.8901    1.4542 H       1  UNL1        0.0449
     50 H          -1.4595    0.0753    2.3498 H       1  UNL1        0.0449
@<TRIPOS>UNITY_ATOM_ATTR
15 1
charge 1
@<TRIPOS>BOND
     1     1     2    2
     2     2     3    2
     3     2     4    1
     4     2    10    1
     5     4     9   ar
     6     4     5   ar
     7     5     6   ar
     8     5    32    1
     9     6     7   ar
    10     6    33    1
    11     7     8   ar
    12     7    34    1
    13     8     9   ar
    14     8    35    1
    15     9    36    1
    16    10    31    1
    17    10    11    1
    18    11    12    1
    19    11    37    1
    20    11    38    1
    21    12    13    1
    22    12    29    1
    23    12    14    1
    24    14    15    1
    25    14    39    1
    26    14    40    1
    27    15    16    1
    28    15    17    1
    29    15    28    1
    30    17    18    1
    31    17    41    1
    32    17    42    1
    33    18    27   ar
    34    18    19   ar
    35    19    20   ar
    36    19    43    1
    37    20    21   ar
    38    20    44    1
    39    21    22    1
    40    21    26   ar
    41    22    23    1
    42    22    24    1
    43    22    25    1
    44    26    27   ar
    45    26    45    1
    46    27    46    1
    47    28    29    1
    48    28    47    1
    49    28    48    1
    50    29    30    1
    51    29    31    1
    52    31    49    1
    53    31    50    1
