@<TRIPOS>MOLECULE
ZINC000097166176
 37 38 0 0 0
SMALL
GASTEIGER

@<TRIPOS>ATOM
      1 C          -0.0187    1.5258    0.0104 C.3     1  UNL1       -0.0428
      2 C           0.0021   -0.0041    0.0020 C.3     1  UNL1        0.0632
      3 C           0.6942   -0.5079   -1.2660 C.3     1  UNL1        0.0640
      4 O          -0.0063   -0.0260   -2.4146 O.3     1  UNL1       -0.3931
      5 C          -1.4403   -0.5489    0.0684 C.3     1  UNL1       -0.0298
      6 C          -1.6264   -0.8568    1.5777 C.3     1  UNL1       -0.0367
      7 C          -0.2101   -1.3447    1.9725 C.3     1  UNL1        0.0212
      8 N           0.7115   -0.5010    1.1900 N.3     1  UNL1       -0.1685
      9 S           2.2853   -0.1686    1.5837 S.O2    1  UNL1        0.0628
     10 O           2.6139    1.0493    0.9296 O.2     1  UNL1       -0.1528
     11 O           2.3944   -0.3502    2.9888 O.2     1  UNL1       -0.1528
     12 C           3.2833   -1.4168    0.8417 C.ar    1  UNL1        0.1242
     13 C           4.1885   -1.0809   -0.1470 C.ar    1  UNL1       -0.0223
     14 C           4.9717   -2.0603   -0.7294 C.ar    1  UNL1        0.0567
     15 C           5.9586   -1.6933   -1.8075 C.3     1  UNL1        0.4175
     16 F           7.1919   -1.3826   -1.2247 F       1  UNL1       -0.1659
     17 F           6.1154   -2.7730   -2.6833 F       1  UNL1       -0.1659
     18 F           5.4846   -0.5837   -2.5155 F       1  UNL1       -0.1659
     19 C           4.8502   -3.3757   -0.3227 C.ar    1  UNL1       -0.0486
     20 C           3.9451   -3.7130    0.6662 C.ar    1  UNL1       -0.0410
     21 C           3.1650   -2.7328    1.2529 C.ar    1  UNL1        0.0673
     22 CL          2.0282   -3.1555    2.4949 Cl      1  UNL1       -0.0815
     23 H           1.0039    1.9031    0.0027 H       1  UNL1        0.0249
     24 H          -0.5459    1.8868   -0.8726 H       1  UNL1        0.0249
     25 H          -0.5289    1.8773    0.9072 H       1  UNL1        0.0249
     26 H           1.7216   -0.1443   -1.2881 H       1  UNL1        0.0576
     27 H           0.6943   -1.5979   -1.2713 H       1  UNL1        0.0576
     28 H           0.3779   -0.3073   -3.2562 H       1  UNL1        0.2095
     29 H          -2.1534    0.2064   -0.2619 H       1  UNL1        0.0285
     30 H          -1.5369   -1.4579   -0.5254 H       1  UNL1        0.0285
     31 H          -1.8974    0.0433    2.1295 H       1  UNL1        0.0279
     32 H          -2.3664   -1.6429    1.7277 H       1  UNL1        0.0279
     33 H          -0.0430   -1.2003    3.0398 H       1  UNL1        0.0444
     34 H          -0.0825   -2.3940    1.7062 H       1  UNL1        0.0444
     35 H           4.2839   -0.0533   -0.4652 H       1  UNL1        0.0643
     36 H           5.4622   -4.1403   -0.7780 H       1  UNL1        0.0623
     37 H           3.8503   -4.7408    0.9839 H       1  UNL1        0.0633
@<TRIPOS>BOND
     1     1    23    1
     2     1    24    1
     3     1    25    1
     4     2     1    1
     5     2     8    1
     6     2     3    1
     7     2     5    1
     8     3     4    1
     9     3    26    1
    10     3    27    1
    11     4    28    1
    12     5     6    1
    13     5    29    1
    14     5    30    1
    15     6     7    1
    16     6    31    1
    17     6    32    1
    18     7     8    1
    19     7    33    1
    20     7    34    1
    21     9     8    1
    22     9    10    2
    23     9    11    2
    24     9    12    1
    25    12    21   ar
    26    12    13   ar
    27    13    14   ar
    28    13    35    1
    29    14    15    1
    30    14    19   ar
    31    15    16    1
    32    15    17    1
    33    15    18    1
    34    19    20   ar
    35    19    36    1
    36    20    21   ar
    37    20    37    1
    38    21    22    1
