@<TRIPOS>MOLECULE
ZINC000075166549
 35 37 0 0 0
SMALL
GASTEIGER

@<TRIPOS>ATOM
      1 O           0.0021   -0.0041    0.0020 O.2     1  UNL1       -0.1528
      2 S          -0.0172    1.4168    0.0098 S.O2    1  UNL1        0.0615
      3 O           1.1617    2.2101    0.0028 O.2     1  UNL1       -0.1528
      4 C          -0.9567    1.9094   -1.3970 C.ar    1  UNL1        0.1055
      5 C          -1.8848    1.0442   -1.9458 C.ar    1  UNL1       -0.0348
      6 C          -2.6219    1.4307   -3.0496 C.ar    1  UNL1       -0.0483
      7 C          -2.4313    2.6825   -3.6042 C.ar    1  UNL1        0.0549
      8 C          -3.2345    3.1036   -4.8078 C.3     1  UNL1        0.4174
      9 F          -4.4138    3.7273   -4.3864 F       1  UNL1       -0.1659
     10 F          -2.4843    3.9973   -5.5796 F       1  UNL1       -0.1659
     11 F          -3.5510    1.9771   -5.5746 F       1  UNL1       -0.1659
     12 C          -1.5042    3.5481   -3.0546 C.ar    1  UNL1       -0.0483
     13 C          -0.7699    3.1631   -1.9485 C.ar    1  UNL1       -0.0348
     14 N          -0.8748    1.8654    1.3536 N.3     1  UNL1       -0.1661
     15 C          -0.8194    3.1477    2.1007 C.3     1  UNL1        0.0556
     16 H           0.0558    3.7437    1.8419 H       1  UNL1        0.0503
     17 C          -0.8219    2.7147    3.5860 C.3     1  UNL1       -0.0320
     18 C          -1.5318    1.3440    3.5906 C.3     1  UNL1       -0.0320
     19 C          -1.8928    1.0868    2.1037 C.3     1  UNL1        0.0556
     20 H          -1.8761    0.0273    1.8482 H       1  UNL1        0.0503
     21 C          -3.2647    1.7310    1.8406 C.3     1  UNL1        0.0649
     22 O          -3.2492    3.0707    2.3413 O.3     1  UNL1       -0.3766
     23 C          -2.1373    3.8876    1.8140 C.3     1  UNL1        0.0649
     24 H          -2.0336    0.0662   -1.5125 H       1  UNL1        0.0637
     25 H          -3.3464    0.7545   -3.4788 H       1  UNL1        0.0624
     26 H          -1.3556    4.5263   -3.4877 H       1  UNL1        0.0624
     27 H          -0.0456    3.8394   -1.5191 H       1  UNL1        0.0637
     28 H           0.1990    2.6153    3.9547 H       1  UNL1        0.0282
     29 H          -1.3770    3.4322    4.1903 H       1  UNL1        0.0282
     30 H          -0.8604    0.5695    3.9615 H       1  UNL1        0.0282
     31 H          -2.4364    1.3865    4.1971 H       1  UNL1        0.0282
     32 H          -3.4627    1.7440    0.7688 H       1  UNL1        0.0576
     33 H          -4.0404    1.1596    2.3504 H       1  UNL1        0.0576
     34 H          -2.1266    4.8562    2.3138 H       1  UNL1        0.0576
     35 H          -2.2654    4.0296    0.7409 H       1  UNL1        0.0576
@<TRIPOS>BOND
     1     1     2    2
     2     2     3    2
     3     2     4    1
     4     2    14    1
     5     4    13   ar
     6     4     5   ar
     7     5     6   ar
     8     5    24    1
     9     6     7   ar
    10     6    25    1
    11     7     8    1
    12     7    12   ar
    13     8     9    1
    14     8    10    1
    15     8    11    1
    16    12    13   ar
    17    12    26    1
    18    13    27    1
    19    14    19    1
    20    14    15    1
    21    15    16    1
    22    15    23    1
    23    15    17    1
    24    17    18    1
    25    17    28    1
    26    17    29    1
    27    18    19    1
    28    18    30    1
    29    18    31    1
    30    19    20    1
    31    19    21    1
    32    21    22    1
    33    21    32    1
    34    21    33    1
    35    22    23    1
    36    23    34    1
    37    23    35    1
