@<TRIPOS>MOLECULE
ZINC000408608261
 59 61 0 0 0
SMALL
GASTEIGER

@<TRIPOS>ATOM
      1 C          -0.0187    1.5258    0.0104 C.3     1  UNL1       -0.0466
      2 C           0.0021   -0.0041    0.0020 C.3     1  UNL1        0.0206
      3 H           0.5123   -0.3556   -0.8948 H       1  UNL1        0.0495
      4 C           0.7421   -0.5109    1.2415 C.3     1  UNL1       -0.0308
      5 C           0.8719   -2.0337    1.1708 C.3     1  UNL1       -0.0260
      6 C           1.6008   -2.5330    2.3917 C.ar    1  UNL1       -0.0473
      7 C           2.9789   -2.6409    2.3781 C.ar    1  UNL1       -0.0586
      8 C           3.6475   -3.0988    3.4980 C.ar    1  UNL1       -0.0615
      9 C           2.9380   -3.4484    4.6317 C.ar    1  UNL1       -0.0617
     10 C           1.5600   -3.3396    4.6457 C.ar    1  UNL1       -0.0615
     11 C           0.8918   -2.8776    3.5272 C.ar    1  UNL1       -0.0586
     12 N          -1.3723   -0.5112    0.0124 N.am    1  UNL1       -0.3116
     13 C          -2.0508   -0.6427   -1.1446 C.2     1  UNL1        0.2290
     14 O          -1.5236   -0.3413   -2.1944 O.2     1  UNL1       -0.2743
     15 C          -3.4646   -1.1643   -1.1339 C.3     1  UNL1        0.0971
     16 N          -3.9776   -1.2130   -2.5053 N.3     1  UNL1       -0.1635
     17 C          -3.7030   -2.3787   -3.3491 C.3     1  UNL1        0.0461
     18 C          -4.7315   -3.4469   -3.0803 C.ar    1  UNL1       -0.0315
     19 C          -4.5066   -4.3899   -2.0947 C.ar    1  UNL1       -0.0546
     20 C          -5.4490   -5.3699   -1.8472 C.ar    1  UNL1       -0.0262
     21 C          -6.6191   -5.4068   -2.5866 C.ar    1  UNL1        0.1234
     22 F          -7.5413   -6.3642   -2.3452 F       1  UNL1       -0.2055
     23 C          -6.8435   -4.4616   -3.5731 C.ar    1  UNL1       -0.0262
     24 C          -5.9017   -3.4797   -3.8156 C.ar    1  UNL1       -0.0546
     25 S          -4.8677    0.0496   -3.1018 S.O2    1  UNL1        0.0616
     26 O          -5.7655   -0.5063   -4.0527 O.2     1  UNL1       -0.1528
     27 O          -5.2965    0.8048   -1.9770 O.2     1  UNL1       -0.1528
     28 C          -3.7645    1.0848   -4.0049 C.ar    1  UNL1        0.1055
     29 C          -3.1028    2.1154   -3.3638 C.ar    1  UNL1       -0.0353
     30 C          -2.2372    2.9276   -4.0723 C.ar    1  UNL1       -0.0599
     31 C          -2.0331    2.7090   -5.4219 C.ar    1  UNL1       -0.0616
     32 C          -2.6941    1.6779   -6.0629 C.ar    1  UNL1       -0.0599
     33 C          -3.5563    0.8630   -5.3534 C.ar    1  UNL1       -0.0353
     34 H           1.0039    1.9031    0.0027 H       1  UNL1        0.0247
     35 H          -0.5459    1.8868   -0.8726 H       1  UNL1        0.0247
     36 H          -0.5289    1.8773    0.9072 H       1  UNL1        0.0247
     37 H           1.7350   -0.0630    1.2804 H       1  UNL1        0.0286
     38 H           0.1838   -0.2350    2.1361 H       1  UNL1        0.0286
     39 H          -0.1210   -2.4817    1.1320 H       1  UNL1        0.0314
     40 H           1.4302   -2.3096    0.2763 H       1  UNL1        0.0314
     41 H           3.5331   -2.3677    1.4923 H       1  UNL1        0.0620
     42 H           4.7241   -3.1838    3.4870 H       1  UNL1        0.0618
     43 H           3.4603   -3.8068    5.5064 H       1  UNL1        0.0618
     44 H           1.0057   -3.6130    5.5313 H       1  UNL1        0.0618
     45 H          -0.1848   -2.7926    3.5382 H       1  UNL1        0.0620
     46 H          -1.7940   -0.7522    0.8520 H       1  UNL1        0.1490
     47 H          -3.4790   -2.1662   -0.7048 H       1  UNL1        0.0539
     48 H          -4.0912   -0.5035   -0.5349 H       1  UNL1        0.0539
     49 H          -3.7483   -2.0866   -4.3983 H       1  UNL1        0.0493
     50 H          -2.7096   -2.7656   -3.1222 H       1  UNL1        0.0493
     51 H          -3.5938   -4.3608   -1.5181 H       1  UNL1        0.0622
     52 H          -5.2727   -6.1068   -1.0777 H       1  UNL1        0.0646
     53 H          -7.7557   -4.4897   -4.1507 H       1  UNL1        0.0646
     54 H          -6.0767   -2.7421   -4.5848 H       1  UNL1        0.0622
     55 H          -3.2623    2.2862   -2.3094 H       1  UNL1        0.0637
     56 H          -1.7208    3.7331   -3.5716 H       1  UNL1        0.0618
     57 H          -1.3574    3.3439   -5.9757 H       1  UNL1        0.0618
     58 H          -2.5348    1.5073   -7.1174 H       1  UNL1        0.0618
     59 H          -4.0728    0.0574   -5.8541 H       1  UNL1        0.0637
@<TRIPOS>BOND
     1     1     2    1
     2     1    34    1
     3     1    35    1
     4     1    36    1
     5     2     3    1
     6     2     4    1
     7     2    12    1
     8     4     5    1
     9     4    37    1
    10     4    38    1
    11     5     6    1
    12     5    39    1
    13     5    40    1
    14     6    11   ar
    15     6     7   ar
    16     7     8   ar
    17     7    41    1
    18     8     9   ar
    19     8    42    1
    20     9    10   ar
    21     9    43    1
    22    10    11   ar
    23    10    44    1
    24    11    45    1
    25    12    13   am
    26    12    46    1
    27    13    14    2
    28    13    15    1
    29    15    16    1
    30    15    47    1
    31    15    48    1
    32    16    17    1
    33    25    16    1
    34    17    18    1
    35    17    49    1
    36    17    50    1
    37    18    24   ar
    38    18    19   ar
    39    19    20   ar
    40    19    51    1
    41    20    21   ar
    42    20    52    1
    43    21    22    1
    44    21    23   ar
    45    23    24   ar
    46    23    53    1
    47    24    54    1
    48    25    26    2
    49    25    27    2
    50    25    28    1
    51    28    33   ar
    52    28    29   ar
    53    29    30   ar
    54    29    55    1
    55    30    31   ar
    56    30    56    1
    57    31    32   ar
    58    31    57    1
    59    32    33   ar
    60    32    58    1
    61    33    59    1
