@<TRIPOS>MOLECULE
ZINC000006946181
 58 59 0 0 0
SMALL
GASTEIGER

@<TRIPOS>ATOM
      1 C          -0.0187    1.5258    0.0104 C.3     1  UNL1       -0.0652
      2 C           0.0021   -0.0041    0.0020 C.3     1  UNL1       -0.0542
      3 C           0.7421   -0.5109    1.2415 C.3     1  UNL1       -0.0350
      4 C           0.7628   -2.0407    1.2331 C.3     1  UNL1        0.0203
      5 H          -0.2567   -2.4175    1.1513 H       1  UNL1        0.0495
      6 C           1.3918   -2.5494    2.5318 C.3     1  UNL1       -0.0466
      7 N           1.5508   -2.5122    0.0916 N.am    1  UNL1       -0.3116
      8 C           1.3205   -3.7345   -0.4273 C.2     1  UNL1        0.2290
      9 O           0.4611   -4.4442    0.0507 O.2     1  UNL1       -0.2743
     10 C           2.1311   -4.2195   -1.6016 C.3     1  UNL1        0.0968
     11 N           1.6924   -5.5665   -1.9748 N.3     1  UNL1       -0.1675
     12 C           0.5477   -5.7417   -2.8721 C.3     1  UNL1        0.0250
     13 C           1.0199   -5.6520   -4.3247 C.3     1  UNL1       -0.0132
     14 C          -0.1577   -5.8323   -5.2477 C.ar    1  UNL1       -0.0461
     15 C          -0.5113   -7.0975   -5.6779 C.ar    1  UNL1       -0.0585
     16 C          -1.5914   -7.2628   -6.5246 C.ar    1  UNL1       -0.0615
     17 C          -2.3182   -6.1630   -6.9407 C.ar    1  UNL1       -0.0617
     18 C          -1.9651   -4.8979   -6.5098 C.ar    1  UNL1       -0.0615
     19 C          -0.8875   -4.7330   -5.6597 C.ar    1  UNL1       -0.0585
     20 S           2.4905   -6.8911   -1.3824 S.O2    1  UNL1        0.0613
     21 O           2.3664   -7.9079   -2.3672 O.2     1  UNL1       -0.1528
     22 O           3.7432   -6.4230   -0.9020 O.2     1  UNL1       -0.1528
     23 C           1.5950   -7.4521    0.0276 C.ar    1  UNL1        0.1055
     24 C           1.8994   -6.9567    1.2817 C.ar    1  UNL1       -0.0351
     25 C           1.1969   -7.3968    2.3879 C.ar    1  UNL1       -0.0570
     26 C           0.1896   -8.3320    2.2399 C.ar    1  UNL1       -0.0503
     27 C          -0.5759   -8.8121    3.4458 C.3     1  UNL1       -0.0397
     28 C          -0.1157   -8.8263    0.9855 C.ar    1  UNL1       -0.0570
     29 C           0.5843   -8.3833   -0.1211 C.ar    1  UNL1       -0.0351
     30 H           1.0039    1.9031    0.0027 H       1  UNL1        0.0230
     31 H          -0.5459    1.8868   -0.8726 H       1  UNL1        0.0230
     32 H          -0.5289    1.8773    0.9072 H       1  UNL1        0.0230
     33 H          -1.0205   -0.3814    0.0098 H       1  UNL1        0.0263
     34 H           0.5123   -0.3556   -0.8948 H       1  UNL1        0.0263
     35 H           1.7647   -0.1336    1.2338 H       1  UNL1        0.0283
     36 H           0.2319   -0.1594    2.1383 H       1  UNL1        0.0283
     37 H           0.8055   -2.1987    3.3812 H       1  UNL1        0.0247
     38 H           1.4065   -3.6393    2.5258 H       1  UNL1        0.0247
     39 H           2.4113   -2.1727    2.6137 H       1  UNL1        0.0247
     40 H           2.2382   -1.9445   -0.2908 H       1  UNL1        0.1490
     41 H           1.9885   -3.5441   -2.4452 H       1  UNL1        0.0539
     42 H           3.1863   -4.2433   -1.3297 H       1  UNL1        0.0539
     43 H           0.0948   -6.7176   -2.6970 H       1  UNL1        0.0447
     44 H          -0.1875   -4.9602   -2.6801 H       1  UNL1        0.0447
     45 H           1.4728   -4.6761   -4.4999 H       1  UNL1        0.0326
     46 H           1.7550   -6.4335   -4.5167 H       1  UNL1        0.0326
     47 H           0.0565   -7.9567   -5.3527 H       1  UNL1        0.0620
     48 H          -1.8673   -8.2513   -6.8612 H       1  UNL1        0.0618
     49 H          -3.1616   -6.2922   -7.6028 H       1  UNL1        0.0618
     50 H          -2.5326   -4.0386   -6.8353 H       1  UNL1        0.0618
     51 H          -0.6117   -3.7446   -5.3231 H       1  UNL1        0.0620
     52 H           2.6863   -6.2261    1.3973 H       1  UNL1        0.0637
     53 H           1.4351   -7.0103    3.3678 H       1  UNL1        0.0621
     54 H          -1.4434   -8.1714    3.6043 H       1  UNL1        0.0278
     55 H          -0.9068   -9.8376    3.2815 H       1  UNL1        0.0278
     56 H           0.0687   -8.7747    4.3240 H       1  UNL1        0.0278
     57 H          -0.9028   -9.5566    0.8698 H       1  UNL1        0.0621
     58 H           0.3458   -8.7695   -1.1011 H       1  UNL1        0.0637
@<TRIPOS>BOND
     1     1     2    1
     2     1    30    1
     3     1    31    1
     4     1    32    1
     5     2     3    1
     6     2    33    1
     7     2    34    1
     8     3     4    1
     9     3    35    1
    10     3    36    1
    11     4     5    1
    12     4     6    1
    13     4     7    1
    14     6    37    1
    15     6    38    1
    16     6    39    1
    17     7     8   am
    18     7    40    1
    19     8     9    2
    20     8    10    1
    21    10    11    1
    22    10    41    1
    23    10    42    1
    24    11    12    1
    25    20    11    1
    26    12    13    1
    27    12    43    1
    28    12    44    1
    29    13    14    1
    30    13    45    1
    31    13    46    1
    32    14    19   ar
    33    14    15   ar
    34    15    16   ar
    35    15    47    1
    36    16    17   ar
    37    16    48    1
    38    17    18   ar
    39    17    49    1
    40    18    19   ar
    41    18    50    1
    42    19    51    1
    43    20    21    2
    44    20    22    2
    45    20    23    1
    46    23    29   ar
    47    23    24   ar
    48    24    25   ar
    49    24    52    1
    50    25    26   ar
    51    25    53    1
    52    26    27    1
    53    26    28   ar
    54    27    54    1
    55    27    55    1
    56    27    56    1
    57    28    29   ar
    58    28    57    1
    59    29    58    1
