@<TRIPOS>MOLECULE
ZINC000237504753
 39 40 0 0 0
SMALL
GASTEIGER

@<TRIPOS>ATOM
      1 C           0.0017    1.2256   -0.6121 C.3     1  UNL1       -0.0476
      2 C           0.0244   -0.2709   -0.2945 C.3     1  UNL1        0.0341
      3 H           0.5544   -0.8039   -1.0839 H       1  UNL1        0.0479
      4 C          -1.4110   -0.7965   -0.1942 C.3     1  UNL1        0.0073
      5 C          -2.1072   -0.1422    1.0014 C.3     1  UNL1       -0.0216
      6 H          -2.1021    0.9406    0.8767 H       1  UNL1        0.0851
      7 N          -3.4943   -0.6191    1.0812 N.4     1  UNL1        0.2208
      8 H          -3.4992   -1.6215    1.1963 H       1  UNL1        0.1997
      9 H          -3.9534   -0.1878    1.8694 H       1  UNL1        0.1997
     10 H          -3.9830   -0.3755    0.2327 H       1  UNL1        0.1997
     11 C          -1.3668   -0.5105    2.2892 C.3     1  UNL1        0.0047
     12 C           0.0691    0.0183    2.2170 C.3     1  UNL1        0.0259
     13 N           0.7027   -0.4916    0.9900 N.3     1  UNL1       -0.1734
     14 S           2.1475   -1.2979    1.0588 S.O2    1  UNL1        0.0625
     15 O           2.8198   -1.0216   -0.1622 O.2     1  UNL1       -0.1528
     16 O           2.7052   -1.0138    2.3346 O.2     1  UNL1       -0.1528
     17 C           1.7837   -3.0219    1.0475 C.ar    1  UNL1        0.1237
     18 C           2.1407   -3.7964   -0.0399 C.ar    1  UNL1       -0.0334
     19 C           1.8552   -5.1492   -0.0490 C.ar    1  UNL1       -0.0482
     20 C           1.2124   -5.7277    1.0292 C.ar    1  UNL1        0.0563
     21 C           0.9017   -7.2023    1.0185 C.3     1  UNL1        0.4175
     22 F           1.9725   -7.9085    1.5769 F       1  UNL1       -0.1659
     23 F          -0.2554   -7.4404    1.7679 F       1  UNL1       -0.1659
     24 F           0.6995   -7.6267   -0.2991 F       1  UNL1       -0.1659
     25 C           0.8549   -4.9540    2.1176 C.ar    1  UNL1       -0.0299
     26 C           1.1457   -3.6016    2.1299 C.ar    1  UNL1        0.0678
     27 CL          0.6970   -2.6293    3.4963 Cl      1  UNL1       -0.0815
     28 H           1.0238    1.5986   -0.6781 H       1  UNL1        0.0245
     29 H          -0.5063    1.3876   -1.5628 H       1  UNL1        0.0245
     30 H          -0.5286    1.7568    0.1783 H       1  UNL1        0.0245
     31 H          -1.9524   -0.5529   -1.1083 H       1  UNL1        0.0335
     32 H          -1.3939   -1.8778   -0.0581 H       1  UNL1        0.0335
     33 H          -1.8767   -0.0634    3.1426 H       1  UNL1        0.0333
     34 H          -1.3501   -1.5946    2.4019 H       1  UNL1        0.0333
     35 H           0.0566    1.1080    2.1956 H       1  UNL1        0.0446
     36 H           0.6293   -0.3257    3.0865 H       1  UNL1        0.0446
     37 H           2.6423   -3.3448   -0.8830 H       1  UNL1        0.0638
     38 H           2.1344   -5.7541   -0.8991 H       1  UNL1        0.0624
     39 H           0.3526   -5.4061    2.9600 H       1  UNL1        0.0638
@<TRIPOS>UNITY_ATOM_ATTR
7 1
charge 1
@<TRIPOS>BOND
     1     1     2    1
     2     1    28    1
     3     1    29    1
     4     1    30    1
     5     2     3    1
     6     2    13    1
     7     2     4    1
     8     4     5    1
     9     4    31    1
    10     4    32    1
    11     5     6    1
    12     5     7    1
    13     5    11    1
    14     7     8    1
    15     7     9    1
    16     7    10    1
    17    11    12    1
    18    11    33    1
    19    11    34    1
    20    12    13    1
    21    12    35    1
    22    12    36    1
    23    14    13    1
    24    14    15    2
    25    14    16    2
    26    14    17    1
    27    17    26   ar
    28    17    18   ar
    29    18    19   ar
    30    18    37    1
    31    19    20   ar
    32    19    38    1
    33    20    21    1
    34    20    25   ar
    35    21    22    1
    36    21    23    1
    37    21    24    1
    38    25    26   ar
    39    25    39    1
    40    26    27    1
