@<TRIPOS>MOLECULE
ZINC000022227067
 53 54 0 0 0
SMALL
GASTEIGER

@<TRIPOS>ATOM
      1 C          -0.0187    1.5258    0.0104 C.3     1  UNL1       -0.0507
      2 C           0.0021   -0.0041    0.0020 C.3     1  UNL1        0.0177
      3 N           0.6878   -0.4765   -1.2033 N.3     1  UNL1       -0.1771
      4 C           2.1478   -0.5966   -1.2159 C.3     1  UNL1        0.0177
      5 C           2.5532   -1.9514   -0.6319 C.3     1  UNL1       -0.0507
      6 S          -0.1875   -0.8749   -2.5515 S.O2    1  UNL1        0.0608
      7 O           0.6166   -1.7761   -3.3001 O.2     1  UNL1       -0.1528
      8 O          -1.4970   -1.1925   -2.1004 O.2     1  UNL1       -0.1528
      9 C          -0.3375    0.5853   -3.5262 C.ar    1  UNL1        0.1055
     10 C          -1.4057    1.4405   -3.3300 C.ar    1  UNL1       -0.0351
     11 C          -1.5234    2.5861   -4.0947 C.ar    1  UNL1       -0.0567
     12 C          -0.5727    2.8767   -5.0552 C.ar    1  UNL1       -0.0458
     13 C          -0.7013    4.1253   -5.8892 C.3     1  UNL1       -0.0121
     14 C           0.0204    5.2805   -5.1924 C.3     1  UNL1        0.0157
     15 N          -0.1047    6.4943   -6.0031 N.am    1  UNL1       -0.3122
     16 C           0.4570    7.6455   -5.5839 C.2     1  UNL1        0.2507
     17 O           1.0659    7.6766   -4.5354 O.2     1  UNL1       -0.2721
     18 C           0.3284    8.8941   -6.4178 C.3     1  UNL1        0.1651
     19 O           1.0024    9.9731   -5.7670 O.3     1  UNL1       -0.4828
     20 C           0.9819   11.1799   -6.3918 C.ar    1  UNL1        0.1212
     21 C           0.3216   11.3239   -7.6034 C.ar    1  UNL1       -0.0199
     22 C           0.3018   12.5517   -8.2362 C.ar    1  UNL1       -0.0583
     23 C           0.9397   13.6364   -7.6632 C.ar    1  UNL1       -0.0615
     24 C           1.5988   13.4954   -6.4560 C.ar    1  UNL1       -0.0583
     25 C           1.6163   12.2711   -5.8162 C.ar    1  UNL1       -0.0199
     26 C           0.4962    2.0221   -5.2504 C.ar    1  UNL1       -0.0567
     27 C           0.6160    0.8786   -4.4831 C.ar    1  UNL1       -0.0351
     28 H           1.0039    1.9031    0.0027 H       1  UNL1        0.0243
     29 H          -0.5459    1.8868   -0.8726 H       1  UNL1        0.0243
     30 H          -0.5289    1.8773    0.9072 H       1  UNL1        0.0243
     31 H           0.5293   -0.3651    0.8851 H       1  UNL1        0.0441
     32 H          -1.0205   -0.3814    0.0098 H       1  UNL1        0.0441
     33 H           2.5098   -0.5199   -2.2412 H       1  UNL1        0.0441
     34 H           2.5833    0.2026   -0.6162 H       1  UNL1        0.0441
     35 H           2.1912   -2.0280    0.3934 H       1  UNL1        0.0243
     36 H           2.1177   -2.7506   -1.2316 H       1  UNL1        0.0243
     37 H           3.6395   -2.0407   -0.6413 H       1  UNL1        0.0243
     38 H          -2.1485    1.2135   -2.5796 H       1  UNL1        0.0637
     39 H          -2.3583    3.2539   -3.9419 H       1  UNL1        0.0621
     40 H          -0.2543    3.9556   -6.8687 H       1  UNL1        0.0328
     41 H          -1.7555    4.3750   -6.0092 H       1  UNL1        0.0328
     42 H          -0.4267    5.4502   -4.2129 H       1  UNL1        0.0465
     43 H           1.0745    5.0308   -5.0723 H       1  UNL1        0.0465
     44 H          -0.5916    6.4695   -6.8416 H       1  UNL1        0.1488
     45 H           0.7754    8.7245   -7.3973 H       1  UNL1        0.0795
     46 H          -0.7258    9.1439   -6.5379 H       1  UNL1        0.0795
     47 H          -0.1762   10.4767   -8.0516 H       1  UNL1        0.0654
     48 H          -0.2121   12.6643   -9.1794 H       1  UNL1        0.0619
     49 H           0.9234   14.5954   -8.1597 H       1  UNL1        0.0618
     50 H           2.0966   14.3441   -6.0107 H       1  UNL1        0.0619
     51 H           2.1313   12.1615   -4.8732 H       1  UNL1        0.0654
     52 H           1.2392    2.2494   -6.0006 H       1  UNL1        0.0621
     53 H           1.4511    0.2109   -4.6357 H       1  UNL1        0.0637
@<TRIPOS>BOND
     1     1     2    1
     2     1    28    1
     3     1    29    1
     4     1    30    1
     5     2     3    1
     6     2    31    1
     7     2    32    1
     8     3     4    1
     9     6     3    1
    10     4     5    1
    11     4    33    1
    12     4    34    1
    13     5    35    1
    14     5    36    1
    15     5    37    1
    16     6     7    2
    17     6     8    2
    18     6     9    1
    19     9    27   ar
    20     9    10   ar
    21    10    11   ar
    22    10    38    1
    23    11    12   ar
    24    11    39    1
    25    12    13    1
    26    12    26   ar
    27    13    14    1
    28    13    40    1
    29    13    41    1
    30    14    15    1
    31    14    42    1
    32    14    43    1
    33    15    16   am
    34    15    44    1
    35    16    17    2
    36    16    18    1
    37    18    19    1
    38    18    45    1
    39    18    46    1
    40    19    20    1
    41    20    25   ar
    42    20    21   ar
    43    21    22   ar
    44    21    47    1
    45    22    23   ar
    46    22    48    1
    47    23    24   ar
    48    23    49    1
    49    24    25   ar
    50    24    50    1
    51    25    51    1
    52    26    27   ar
    53    26    52    1
    54    27    53    1
