@<TRIPOS>MOLECULE
ZINC000008734522
 42 44 0 0 0
SMALL
GASTEIGER

@<TRIPOS>ATOM
      1 O          -0.1494    0.0931    0.4662 O.2     1  UNL1       -0.2684
      2 C          -0.0144    1.2129    0.0087 C.2     1  UNL1        0.2630
      3 C           1.2890    1.8793    0.0749 C.ar    1  UNL1        0.1045
      4 C           2.5178    1.2592    0.1694 C.ar    1  UNL1       -0.0120
      5 C           3.4859    2.2670    0.2054 C.ar    1  UNL1        0.0779
      6 CL          5.2020    2.0318    0.3207 Cl      1  UNL1       -0.0804
      7 C           2.8463    3.4618    0.1336 C.ar    1  UNL1        0.1258
      8 CL          3.6121    5.0197    0.1424 Cl      1  UNL1       -0.0625
      9 N           1.5108    3.2391    0.0479 N.ar    1  UNL1       -0.3407
     10 N          -1.0624    1.8379   -0.5637 N.am    1  UNL1       -0.2938
     11 C          -0.8808    3.1212   -1.2564 C.3     1  UNL1        0.0295
     12 C          -1.4178    2.9864   -2.6867 C.3     1  UNL1        0.0364
     13 N          -2.7626    2.3965   -2.6297 N.3     1  UNL1       -0.1736
     14 S          -4.0501    3.1638   -3.3339 S.O2    1  UNL1        0.0623
     15 O          -5.2127    2.6897   -2.6684 O.2     1  UNL1       -0.1528
     16 O          -3.7047    4.5401   -3.4095 O.2     1  UNL1       -0.1528
     17 C          -4.1570    2.5857   -4.9949 C.ar    1  UNL1        0.1242
     18 C          -5.2581    1.8576   -5.4038 C.ar    1  UNL1       -0.0223
     19 C          -5.3421    1.4038   -6.7071 C.ar    1  UNL1        0.0567
     20 C          -6.5431    0.6099   -7.1523 C.3     1  UNL1        0.4175
     21 F          -7.5234    1.4809   -7.6397 F       1  UNL1       -0.1659
     22 F          -6.1653   -0.2797   -8.1638 F       1  UNL1       -0.1659
     23 F          -7.0557   -0.1086   -6.0669 F       1  UNL1       -0.1659
     24 C          -4.3251    1.6785   -7.6020 C.ar    1  UNL1       -0.0486
     25 C          -3.2232    2.4067   -7.1942 C.ar    1  UNL1       -0.0410
     26 C          -3.1410    2.8654   -5.8917 C.ar    1  UNL1        0.0673
     27 CL         -1.7575    3.7800   -5.3788 Cl      1  UNL1       -0.0815
     28 C          -2.9443    1.1131   -1.9369 C.3     1  UNL1        0.0364
     29 C          -2.4063    1.2452   -0.5115 C.3     1  UNL1        0.0295
     30 H           2.6979    0.1950    0.2084 H       1  UNL1        0.0655
     31 H           0.8258    3.9231   -0.0148 H       1  UNL1        0.1669
     32 H          -1.4312    3.9017   -0.7310 H       1  UNL1        0.0478
     33 H           0.1791    3.3742   -1.2859 H       1  UNL1        0.0478
     34 H          -1.4695    3.9706   -3.1523 H       1  UNL1        0.0459
     35 H          -0.7587    2.3394   -3.2654 H       1  UNL1        0.0459
     36 H          -6.0530    1.6426   -4.7050 H       1  UNL1        0.0643
     37 H          -4.3913    1.3238   -8.6199 H       1  UNL1        0.0623
     38 H          -2.4286    2.6213   -7.8935 H       1  UNL1        0.0633
     39 H          -4.0041    0.8602   -1.9074 H       1  UNL1        0.0459
     40 H          -2.3939    0.3327   -2.4623 H       1  UNL1        0.0459
     41 H          -2.3551    0.2604   -0.0471 H       1  UNL1        0.0478
     42 H          -3.0635    1.8925    0.0691 H       1  UNL1        0.0478
@<TRIPOS>BOND
     1     1     2    2
     2     2     3    1
     3     2    10   am
     4     3     9   ar
     5     3     4   ar
     6     4     5   ar
     7     4    30    1
     8     5     6    1
     9     5     7   ar
    10     7     8    1
    11     7     9   ar
    12     9    31    1
    13    10    29    1
    14    10    11    1
    15    11    12    1
    16    11    32    1
    17    11    33    1
    18    12    13    1
    19    12    34    1
    20    12    35    1
    21    14    13    1
    22    13    28    1
    23    14    15    2
    24    14    16    2
    25    14    17    1
    26    17    26   ar
    27    17    18   ar
    28    18    19   ar
    29    18    36    1
    30    19    20    1
    31    19    24   ar
    32    20    21    1
    33    20    22    1
    34    20    23    1
    35    24    25   ar
    36    24    37    1
    37    25    26   ar
    38    25    38    1
    39    26    27    1
    40    28    29    1
    41    28    39    1
    42    28    40    1
    43    29    41    1
    44    29    42    1
