@<TRIPOS>MOLECULE
ZINC000020069904
 47 49 0 0 0
SMALL
GASTEIGER

@<TRIPOS>ATOM
      1 O           0.0021   -0.0041    0.0020 O.2     1  UNL1       -0.2754
      2 C          -0.0144    1.2086    0.0087 C.2     1  UNL1        0.2182
      3 N           1.1435    1.8983    0.0013 N.am    1  UNL1       -0.2796
      4 C           2.4220    1.1832   -0.0147 C.3     1  UNL1        0.2776
      5 C           2.5831    0.3433    1.2540 C.3     1  UNL1        0.4365
      6 F           1.5516   -0.5992    1.3235 F       1  UNL1       -0.1662
      7 F           3.8164   -0.3165    1.2230 F       1  UNL1       -0.1662
      8 F           2.5288    1.1777    2.3756 F       1  UNL1       -0.1662
      9 N           3.5427    2.1281   -0.1603 N.am    1  UNL1       -0.2632
     10 C           4.1664    1.8112   -1.3094 C.2     1  UNL1        0.3110
     11 O           5.1419    2.3994   -1.7331 O.2     1  UNL1       -0.2521
     12 N           3.5929    0.7761   -1.9335 N.am    1  UNL1       -0.2182
     13 C           4.0633    0.2175   -3.2035 C.3     1  UNL1        0.0490
     14 C           5.0714   -0.8692   -2.9316 C.ar    1  UNL1       -0.0296
     15 C           6.4143   -0.5568   -2.8311 C.ar    1  UNL1       -0.0571
     16 C           7.3390   -1.5535   -2.5817 C.ar    1  UNL1       -0.0615
     17 C           6.9208   -2.8626   -2.4323 C.ar    1  UNL1       -0.0617
     18 C           5.5779   -3.1749   -2.5318 C.ar    1  UNL1       -0.0615
     19 C           4.6527   -2.1775   -2.7770 C.ar    1  UNL1       -0.0571
     20 C           2.5293    0.3103   -1.2493 C.2     1  UNL1        0.2745
     21 O           1.8089   -0.6150   -1.5568 O.2     1  UNL1       -0.2706
     22 C          -1.3296    1.9443    0.0189 C.3     1  UNL1        0.0356
     23 C          -1.4285    2.8295   -1.2251 C.3     1  UNL1       -0.0419
     24 C          -2.7637    3.5764   -1.2147 C.3     1  UNL1       -0.0524
     25 C          -3.9130    2.5665   -1.2147 C.3     1  UNL1       -0.0530
     26 C          -3.8141    1.6813    0.0293 C.3     1  UNL1       -0.0524
     27 C          -2.4789    0.9344    0.0189 C.3     1  UNL1       -0.0419
     28 H           1.1304    2.8682    0.0067 H       1  UNL1        0.1515
     29 H           3.7835    2.8404    0.4525 H       1  UNL1        0.1530
     30 H           3.2188   -0.1994   -3.7521 H       1  UNL1        0.0519
     31 H           4.5288    1.0048   -3.7965 H       1  UNL1        0.0519
     32 H           6.7410    0.4660   -2.9478 H       1  UNL1        0.0621
     33 H           8.3882   -1.3096   -2.5038 H       1  UNL1        0.0618
     34 H           7.6434   -3.6415   -2.2381 H       1  UNL1        0.0618
     35 H           5.2512   -4.1977   -2.4155 H       1  UNL1        0.0618
     36 H           3.6035   -2.4214   -2.8548 H       1  UNL1        0.0621
     37 H          -1.3916    2.5653    0.9126 H       1  UNL1        0.0394
     38 H          -0.6097    3.5490   -1.2250 H       1  UNL1        0.0272
     39 H          -1.3664    2.2085   -2.1187 H       1  UNL1        0.0272
     40 H          -2.8257    4.1974   -0.3210 H       1  UNL1        0.0265
     41 H          -2.8342    4.2071   -2.1009 H       1  UNL1        0.0265
     42 H          -4.8643    3.0986   -1.2073 H       1  UNL1        0.0265
     43 H          -3.8510    1.9455   -2.1084 H       1  UNL1        0.0265
     44 H          -3.8761    2.3022    0.9230 H       1  UNL1        0.0265
     45 H          -4.6329    0.9618    0.0292 H       1  UNL1        0.0265
     46 H          -2.4169    0.3134   -0.8748 H       1  UNL1        0.0272
     47 H          -2.4084    0.3037    0.9051 H       1  UNL1        0.0272
@<TRIPOS>BOND
     1     1     2    2
     2     2     3   am
     3     2    22    1
     4     3    28    1
     5     4     3    1
     6     4    20    1
     7     4     5    1
     8     4     9    1
     9     5     6    1
    10     5     7    1
    11     5     8    1
    12     9    10   am
    13     9    29    1
    14    10    11    2
    15    10    12   am
    16    12    13    1
    17    12    20   am
    18    13    14    1
    19    13    30    1
    20    13    31    1
    21    14    19   ar
    22    14    15   ar
    23    15    16   ar
    24    15    32    1
    25    16    17   ar
    26    16    33    1
    27    17    18   ar
    28    17    34    1
    29    18    19   ar
    30    18    35    1
    31    19    36    1
    32    20    21    2
    33    22    27    1
    34    22    23    1
    35    22    37    1
    36    23    24    1
    37    23    38    1
    38    23    39    1
    39    24    25    1
    40    24    40    1
    41    24    41    1
    42    25    26    1
    43    25    42    1
    44    25    43    1
    45    26    27    1
    46    26    44    1
    47    26    45    1
    48    27    46    1
    49    27    47    1
