@<TRIPOS>MOLECULE
ZINC000072194202
 43 46 0 0 0
SMALL
GASTEIGER

@<TRIPOS>ATOM
      1 O          -0.1144    0.6874    0.3323 O.2     1  UNL1       -0.2866
      2 C          -0.0279    1.8913    0.1879 C.2     1  UNL1        0.1947
      3 C          -1.2455    2.7310    0.1580 C.ar    1  UNL1        0.0331
      4 C          -2.5007    2.1523    0.0058 C.ar    1  UNL1       -0.0502
      5 C          -3.6293    2.9538   -0.0201 C.ar    1  UNL1       -0.0610
      6 C          -3.5175    4.3263    0.1042 C.ar    1  UNL1       -0.0610
      7 C          -2.2752    4.9185    0.2560 C.ar    1  UNL1       -0.0502
      8 C          -1.1317    4.1280    0.2842 C.ar    1  UNL1        0.0332
      9 C           0.2049    4.7423    0.4434 C.2     1  UNL1        0.1981
     10 O           0.3114    5.9001    0.7979 O.2     1  UNL1       -0.2865
     11 C           1.4069    3.9328    0.1662 C.ar    1  UNL1        0.0784
     12 C           1.2938    2.5333    0.0466 C.ar    1  UNL1        0.0387
     13 C           2.4251    1.7671   -0.2160 C.ar    1  UNL1       -0.0195
     14 C           3.6583    2.3784   -0.3594 C.ar    1  UNL1        0.1593
     15 S           5.0852    1.3999   -0.6928 S.O2    1  UNL1        0.0762
     16 O           6.0861    1.8253    0.2217 O.2     1  UNL1       -0.1498
     17 O           4.6368    0.0545   -0.7838 O.2     1  UNL1       -0.1498
     18 N           5.6234    1.8164   -2.2025 N.pl3   1  UNL1       -0.2161
     19 C           4.8023    1.6209   -3.3153 C.ar    1  UNL1        0.0481
     20 C           4.1175    0.4227   -3.4732 C.ar    1  UNL1       -0.0388
     21 C           3.3060    0.2329   -4.5744 C.ar    1  UNL1       -0.0483
     22 C           3.1752    1.2338   -5.5196 C.ar    1  UNL1        0.0549
     23 C           2.2888    1.0231   -6.7200 C.3     1  UNL1        0.4174
     24 F           0.9916    1.4549   -6.4234 F       1  UNL1       -0.1659
     25 F           2.7879    1.7552   -7.8026 F       1  UNL1       -0.1659
     26 F           2.2639   -0.3366   -7.0484 F       1  UNL1       -0.1659
     27 C           3.8555    2.4278   -5.3655 C.ar    1  UNL1       -0.0483
     28 C           4.6641    2.6265   -4.2637 C.ar    1  UNL1       -0.0388
     29 C           3.7800    3.7532   -0.2435 C.ar    1  UNL1        0.2472
     30 O           4.9965    4.3385   -0.3866 O.3     1  UNL1       -0.2819
     31 C           2.6541    4.5400    0.0252 C.ar    1  UNL1        0.1773
     32 O           2.7736    5.8862    0.1384 O.3     1  UNL1       -0.5027
     33 H          -2.5949    1.0809   -0.0924 H       1  UNL1        0.0625
     34 H          -4.6039    2.5038   -0.1385 H       1  UNL1        0.0618
     35 H          -4.4053    4.9408    0.0825 H       1  UNL1        0.0618
     36 H          -2.1947    5.9912    0.3520 H       1  UNL1        0.0625
     37 H           2.3408    0.6943   -0.3075 H       1  UNL1        0.0646
     38 H           6.5090    2.1962   -2.3139 H       1  UNL1        0.1737
     39 H           4.2198   -0.3597   -2.7357 H       1  UNL1        0.0637
     40 H           2.7733   -0.6985   -4.6978 H       1  UNL1        0.0624
     41 H           3.7510    3.2075   -6.1055 H       1  UNL1        0.0624
     42 H           5.1949    3.5593   -4.1438 H       1  UNL1        0.0637
     43 H           2.6614    6.3626   -0.6956 H       1  UNL1        0.2923
@<TRIPOS>BOND
     1     1     2    2
     2     2    12    1
     3     2     3    1
     4     3     8   ar
     5     3     4   ar
     6     4     5   ar
     7     4    33    1
     8     5     6   ar
     9     5    34    1
    10     6     7   ar
    11     6    35    1
    12     7     8   ar
    13     7    36    1
    14     8     9    1
    15     9    10    2
    16     9    11    1
    17    11    31   ar
    18    11    12   ar
    19    12    13   ar
    20    13    14   ar
    21    13    37    1
    22    14    15    1
    23    14    29   ar
    24    15    16    2
    25    15    17    2
    26    15    18    1
    27    18    19    1
    28    18    38    1
    29    19    28   ar
    30    19    20   ar
    31    20    21   ar
    32    20    39    1
    33    21    22   ar
    34    21    40    1
    35    22    23    1
    36    22    27   ar
    37    23    24    1
    38    23    25    1
    39    23    26    1
    40    27    28   ar
    41    27    41    1
    42    28    42    1
    43    29    30    1
    44    29    31   ar
    45    31    32    1
    46    32    43    1
