@<TRIPOS>MOLECULE
ZINC000001063050
 63 65 0 0 0
SMALL
GASTEIGER

@<TRIPOS>ATOM
      1 C          -9.0479   -6.1174    4.1558 C.3     1  UNL1        0.0788
      2 O          -9.2316   -4.7919    3.6545 O.3     1  UNL1       -0.4948
      3 C          -8.2799   -4.3143    2.8100 C.ar    1  UNL1        0.1231
      4 C          -7.1948   -5.1071    2.4665 C.ar    1  UNL1       -0.0178
      5 C          -6.2288   -4.6194    1.6074 C.ar    1  UNL1       -0.0319
      6 C          -6.3429   -3.3422    1.0907 C.ar    1  UNL1        0.1060
      7 S          -5.1090   -2.7230   -0.0042 S.O2    1  UNL1        0.0616
      8 O          -5.1590   -1.3063    0.0950 O.2     1  UNL1       -0.1528
      9 O          -3.9325   -3.4787    0.2486 O.2     1  UNL1       -0.1528
     10 N          -5.5858   -3.1011   -1.5443 N.3     1  UNL1       -0.1635
     11 C          -5.2909   -4.4249   -2.0982 C.3     1  UNL1        0.0971
     12 C          -6.4777   -5.3308   -1.8937 C.2     1  UNL1        0.2290
     13 O          -7.4720   -4.9119   -1.3398 O.2     1  UNL1       -0.2743
     14 N          -6.4342   -6.6065   -2.3263 N.am    1  UNL1       -0.3114
     15 C          -7.5880   -7.4871   -2.1276 C.3     1  UNL1        0.0232
     16 C          -8.5598   -7.3111   -3.2628 C.3     1  UNL1       -0.0345
     17 C         -10.0251   -7.4717   -2.8148 C.3     1  UNL1       -0.0514
     18 C         -10.2243   -8.6400   -1.8305 C.3     1  UNL1       -0.0530
     19 C          -9.4389   -9.8625   -2.2214 C.3     1  UNL1       -0.0530
     20 C          -8.0903   -9.8383   -1.4732 C.3     1  UNL1       -0.0514
     21 C          -7.1205   -8.9568   -2.1062 C.3     1  UNL1       -0.0345
     22 C          -6.3025   -2.1118   -2.3529 C.3     1  UNL1        0.0460
     23 C          -5.3245   -1.3823   -3.2373 C.ar    1  UNL1       -0.0317
     24 C          -4.7921   -0.1736   -2.8293 C.ar    1  UNL1       -0.0573
     25 C          -3.8950    0.4956   -3.6406 C.ar    1  UNL1       -0.0615
     26 C          -3.5299   -0.0441   -4.8598 C.ar    1  UNL1       -0.0617
     27 C          -4.0616   -1.2533   -5.2674 C.ar    1  UNL1       -0.0615
     28 C          -4.9555   -1.9245   -4.4542 C.ar    1  UNL1       -0.0573
     29 C          -7.4240   -2.5500    1.4313 C.ar    1  UNL1       -0.0290
     30 C          -8.3950   -3.0349    2.2855 C.ar    1  UNL1       -0.0070
     31 C          -9.5732   -2.1712    2.6558 C.3     1  UNL1       -0.0362
     32 H          -9.8762   -6.3741    4.8163 H       1  UNL1        0.0660
     33 H          -9.0163   -6.8198    3.3229 H       1  UNL1        0.0660
     34 H          -8.1112   -6.1694    4.7108 H       1  UNL1        0.0660
     35 H          -7.1049   -6.1047    2.8705 H       1  UNL1        0.0655
     36 H          -5.3838   -5.2363    1.3397 H       1  UNL1        0.0638
     37 H          -5.0822   -4.3345   -3.1642 H       1  UNL1        0.0539
     38 H          -4.4217   -4.8451   -1.5922 H       1  UNL1        0.0539
     39 H          -5.6390   -6.9416   -2.7693 H       1  UNL1        0.1490
     40 H          -8.0756   -7.2443   -1.1834 H       1  UNL1        0.0498
     41 H          -8.4282   -6.3164   -3.6886 H       1  UNL1        0.0283
     42 H          -8.3426   -8.0530   -4.0312 H       1  UNL1        0.0283
     43 H         -10.3491   -6.5484   -2.3346 H       1  UNL1        0.0266
     44 H         -10.6449   -7.6439   -3.6948 H       1  UNL1        0.0266
     45 H          -9.9095   -8.3215   -0.8367 H       1  UNL1        0.0265
     46 H         -11.2831   -8.8968   -1.7975 H       1  UNL1        0.0265
     47 H          -9.9947  -10.7586   -1.9453 H       1  UNL1        0.0265
     48 H          -9.2612   -9.8552   -3.2968 H       1  UNL1        0.0265
     49 H          -8.2598   -9.5005   -0.4509 H       1  UNL1        0.0266
     50 H          -7.6835  -10.8492   -1.4461 H       1  UNL1        0.0266
     51 H          -6.9567   -9.2901   -3.1310 H       1  UNL1        0.0283
     52 H          -6.1783   -9.0196   -1.5617 H       1  UNL1        0.0283
     53 H          -7.0448   -2.6168   -2.9711 H       1  UNL1        0.0493
     54 H          -6.8010   -1.3985   -1.6966 H       1  UNL1        0.0493
     55 H          -5.0774    0.2481   -1.8768 H       1  UNL1        0.0621
     56 H          -3.4796    1.4403   -3.3221 H       1  UNL1        0.0618
     57 H          -2.8296    0.4791   -5.4939 H       1  UNL1        0.0618
     58 H          -3.7766   -1.6748   -6.2200 H       1  UNL1        0.0618
     59 H          -5.3709   -2.8692   -4.7726 H       1  UNL1        0.0621
     60 H          -7.5110   -1.5527    1.0260 H       1  UNL1        0.0641
     61 H         -10.3803   -2.3318    1.9411 H       1  UNL1        0.0279
     62 H          -9.9162   -2.4342    3.6565 H       1  UNL1        0.0279
     63 H          -9.2751   -1.1229    2.6378 H       1  UNL1        0.0279
@<TRIPOS>BOND
     1     1     2    1
     2     1    32    1
     3     1    33    1
     4     1    34    1
     5     2     3    1
     6     3    30   ar
     7     3     4   ar
     8     4     5   ar
     9     4    35    1
    10     5     6   ar
    11     5    36    1
    12     6     7    1
    13     6    29   ar
    14     7     8    2
    15     7     9    2
    16     7    10    1
    17    10    11    1
    18    10    22    1
    19    11    12    1
    20    11    37    1
    21    11    38    1
    22    12    13    2
    23    12    14   am
    24    14    15    1
    25    14    39    1
    26    15    21    1
    27    15    16    1
    28    15    40    1
    29    16    17    1
    30    16    41    1
    31    16    42    1
    32    17    18    1
    33    17    43    1
    34    17    44    1
    35    18    19    1
    36    18    45    1
    37    18    46    1
    38    19    20    1
    39    19    47    1
    40    19    48    1
    41    20    21    1
    42    20    49    1
    43    20    50    1
    44    21    51    1
    45    21    52    1
    46    22    23    1
    47    22    53    1
    48    22    54    1
    49    23    28   ar
    50    23    24   ar
    51    24    25   ar
    52    24    55    1
    53    25    26   ar
    54    25    56    1
    55    26    27   ar
    56    26    57    1
    57    27    28   ar
    58    27    58    1
    59    28    59    1
    60    29    30   ar
    61    29    60    1
    62    30    31    1
    63    31    61    1
    64    31    62    1
    65    31    63    1
