@<TRIPOS>MOLECULE
ZINC000012778292
 44 46 0 0 0
SMALL
GASTEIGER

@<TRIPOS>ATOM
      1 C          -0.1275    0.1270    0.3386 C.3     1  UNL1        0.0001
      2 N          -0.1735   -1.1950   -0.2910 N.am    1  UNL1       -0.3170
      3 C           0.9669   -1.7891   -0.6947 C.2     1  UNL1        0.2320
      4 O           2.0312   -1.2293   -0.5368 O.2     1  UNL1       -0.2740
      5 C           0.9197   -3.1491   -1.3423 C.3     1  UNL1        0.1120
      6 H          -0.0891   -3.5560   -1.2721 H       1  UNL1        0.0579
      7 C           1.9050   -4.0872   -0.6471 C.3     1  UNL1       -0.0016
      8 C           2.1119   -5.3414   -1.4547 C.ar    1  UNL1       -0.0409
      9 C           2.6172   -6.4557   -0.7963 C.ar    1  UNL1       -0.0582
     10 C           2.8395   -7.6335   -1.4792 C.ar    1  UNL1       -0.0615
     11 C           2.5594   -7.7080   -2.8307 C.ar    1  UNL1       -0.0614
     12 C           2.0542   -6.6038   -3.4865 C.ar    1  UNL1       -0.0570
     13 C           1.8246   -5.4201   -2.7992 C.ar    1  UNL1       -0.0284
     14 C           1.2464   -4.2599   -3.5699 C.3     1  UNL1        0.0466
     15 N           1.3160   -3.0415   -2.7562 N.3     1  UNL1       -0.1601
     16 S           1.8227   -1.6029   -3.4013 S.O2    1  UNL1        0.0618
     17 O           1.6751   -1.7206   -4.8097 O.2     1  UNL1       -0.1528
     18 O           1.2001   -0.5792   -2.6373 O.2     1  UNL1       -0.1528
     19 C           3.5524   -1.4728   -3.0915 C.ar    1  UNL1        0.1060
     20 C           4.0195   -0.5827   -2.1429 C.ar    1  UNL1       -0.0353
     21 C           5.3767   -0.4806   -1.8998 C.ar    1  UNL1       -0.0594
     22 C           6.2663   -1.2690   -2.6050 C.ar    1  UNL1       -0.0500
     23 C           5.7990   -2.1600   -3.5533 C.ar    1  UNL1        0.0567
     24 C           6.7690   -3.0193   -4.3225 C.3     1  UNL1        0.4175
     25 F           8.0741   -2.7378   -3.9047 F       1  UNL1       -0.1659
     26 F           6.4848   -4.3687   -4.0871 F       1  UNL1       -0.1659
     27 F           6.6485   -2.7490   -5.6899 F       1  UNL1       -0.1659
     28 C           4.4419   -2.2652   -3.7932 C.ar    1  UNL1       -0.0237
     29 H           0.4784    0.0777    1.2434 H       1  UNL1        0.0426
     30 H           0.3121    0.8444   -0.3544 H       1  UNL1        0.0426
     31 H          -1.1388    0.4426    0.5952 H       1  UNL1        0.0426
     32 H          -1.0246   -1.6427   -0.4172 H       1  UNL1        0.1484
     33 H           2.8607   -3.5773   -0.5256 H       1  UNL1        0.0334
     34 H           1.5143   -4.3536    0.3350 H       1  UNL1        0.0334
     35 H           2.8381   -6.3991    0.2594 H       1  UNL1        0.0620
     36 H           3.2317   -8.4950   -0.9593 H       1  UNL1        0.0618
     37 H           2.7354   -8.6263   -3.3712 H       1  UNL1        0.0618
     38 H           1.8362   -6.6612   -4.5427 H       1  UNL1        0.0621
     39 H           1.8148   -4.1156   -4.4887 H       1  UNL1        0.0493
     40 H           0.2060   -4.4710   -3.8170 H       1  UNL1        0.0493
     41 H           3.3243    0.0333   -1.5918 H       1  UNL1        0.0637
     42 H           5.7417    0.2155   -1.1591 H       1  UNL1        0.0618
     43 H           7.3265   -1.1887   -2.4156 H       1  UNL1        0.0623
     44 H           4.0768   -2.9612   -4.5339 H       1  UNL1        0.0642
@<TRIPOS>BOND
     1     1     2    1
     2     1    29    1
     3     1    30    1
     4     1    31    1
     5     2     3   am
     6     2    32    1
     7     3     4    2
     8     3     5    1
     9     5     6    1
    10     5    15    1
    11     5     7    1
    12     7     8    1
    13     7    33    1
    14     7    34    1
    15     8    13   ar
    16     8     9   ar
    17     9    10   ar
    18     9    35    1
    19    10    11   ar
    20    10    36    1
    21    11    12   ar
    22    11    37    1
    23    12    13   ar
    24    12    38    1
    25    13    14    1
    26    14    15    1
    27    14    39    1
    28    14    40    1
    29    16    15    1
    30    16    17    2
    31    16    18    2
    32    16    19    1
    33    19    28   ar
    34    19    20   ar
    35    20    21   ar
    36    20    41    1
    37    21    22   ar
    38    21    42    1
    39    22    23   ar
    40    22    43    1
    41    23    24    1
    42    23    28   ar
    43    24    25    1
    44    24    26    1
    45    24    27    1
    46    28    44    1
