@<TRIPOS>MOLECULE
ZINC000004622638
 37 38 0 0 0
SMALL
GASTEIGER

@<TRIPOS>ATOM
      1 C           0.4841    1.7201    0.1105 C.3     1  UNL1       -0.0652
      2 C           0.3502    0.1964    0.0749 C.3     1  UNL1       -0.0545
      3 C           1.0052   -0.3435   -1.1980 C.3     1  UNL1       -0.0369
      4 C           0.8713   -1.8672   -1.2336 C.3     1  UNL1        0.0239
      5 N           1.4985   -2.3842   -2.4525 N.am    1  UNL1       -0.2226
      6 C           0.8586   -2.5469   -3.6162 C.2     1  UNL1        0.3107
      7 O          -0.3156   -2.2820   -3.7843 O.2     1  UNL1       -0.2521
      8 N           1.6602   -3.0363   -4.5794 N.am    1  UNL1       -0.2632
      9 C           2.9894   -3.2162   -3.9703 C.3     1  UNL1        0.2776
     10 N           3.9843   -2.3818   -4.6486 N.am    1  UNL1       -0.2796
     11 C           5.2171   -2.2408   -4.1224 C.2     1  UNL1        0.2182
     12 O           5.5299   -2.8695   -3.1336 O.2     1  UNL1       -0.2754
     13 C           6.2067   -1.3018   -4.7626 C.3     1  UNL1        0.0357
     14 C           6.5857   -0.0386   -3.9870 C.3     1  UNL1       -0.0412
     15 C           7.5894   -1.1858   -4.1180 C.3     1  UNL1       -0.0412
     16 C           3.4055   -4.6879   -4.0111 C.3     1  UNL1        0.4365
     17 F           3.5831   -5.0856   -5.3406 F       1  UNL1       -0.1662
     18 F           4.6052   -4.8529   -3.3107 F       1  UNL1       -0.1662
     19 F           2.4085   -5.4710   -3.4194 F       1  UNL1       -0.1662
     20 C           2.7927   -2.7493   -2.5416 C.2     1  UNL1        0.2742
     21 O           3.6251   -2.7166   -1.6608 O.2     1  UNL1       -0.2706
     22 H           1.5395    1.9924    0.1014 H       1  UNL1        0.0230
     23 H          -0.0092    2.1487   -0.7619 H       1  UNL1        0.0230
     24 H           0.0175    2.1048    1.0174 H       1  UNL1        0.0230
     25 H           0.8435   -0.2322    0.9473 H       1  UNL1        0.0263
     26 H          -0.7052   -0.0759    0.0840 H       1  UNL1        0.0263
     27 H           0.5119    0.0851   -2.0704 H       1  UNL1        0.0280
     28 H           2.0606   -0.0712   -1.2071 H       1  UNL1        0.0280
     29 H           1.3646   -2.2958   -0.3613 H       1  UNL1        0.0470
     30 H          -0.1841   -2.1395   -1.2245 H       1  UNL1        0.0470
     31 H           1.4113   -3.2329   -5.4960 H       1  UNL1        0.1530
     32 H           3.7559   -1.9309   -5.4765 H       1  UNL1        0.1515
     33 H           6.1500   -1.2279   -5.8486 H       1  UNL1        0.0394
     34 H           6.7782    0.8668   -4.5627 H       1  UNL1        0.0273
     35 H           6.1192    0.1133   -3.0137 H       1  UNL1        0.0273
     36 H           7.7833   -1.7887   -3.2308 H       1  UNL1        0.0273
     37 H           8.4423   -1.0353   -4.7798 H       1  UNL1        0.0273
@<TRIPOS>BOND
     1     1     2    1
     2     1    22    1
     3     1    23    1
     4     1    24    1
     5     2     3    1
     6     2    25    1
     7     2    26    1
     8     3     4    1
     9     3    27    1
    10     3    28    1
    11     4     5    1
    12     4    29    1
    13     4    30    1
    14     5    20   am
    15     5     6   am
    16     6     7    2
    17     6     8   am
    18     8     9    1
    19     8    31    1
    20     9    10    1
    21     9    16    1
    22     9    20    1
    23    10    11   am
    24    10    32    1
    25    11    12    2
    26    11    13    1
    27    13    15    1
    28    13    14    1
    29    13    33    1
    30    14    15    1
    31    14    34    1
    32    14    35    1
    33    15    36    1
    34    15    37    1
    35    16    17    1
    36    16    18    1
    37    16    19    1
    38    20    21    2
