@<TRIPOS>MOLECULE
ZINC000408786148
 58 61 0 0 0
SMALL
GASTEIGER

@<TRIPOS>ATOM
      1 C          -9.3016   -5.8487    3.9265 C.3     1  UNL1        0.0790
      2 O          -9.5508   -4.5900    3.2974 O.3     1  UNL1       -0.4915
      3 C          -8.5953   -4.1236    2.4495 C.ar    1  UNL1        0.1616
      4 C          -7.4464   -4.8638    2.2238 C.ar    1  UNL1       -0.0145
      5 C          -6.4760   -4.3884    1.3609 C.ar    1  UNL1       -0.0317
      6 C          -6.6491   -3.1748    0.7226 C.ar    1  UNL1        0.1092
      7 S          -5.4086   -2.5742   -0.3752 S.O2    1  UNL1        0.0617
      8 O          -5.5562   -1.1614   -0.4132 O.2     1  UNL1       -0.1528
      9 O          -4.1981   -3.2195   -0.0044 O.2     1  UNL1       -0.1528
     10 N          -5.7868   -3.1248   -1.8906 N.3     1  UNL1       -0.1635
     11 C          -5.3876   -4.4733   -2.3007 C.3     1  UNL1        0.0975
     12 C          -6.5274   -5.4295   -2.0605 C.2     1  UNL1        0.2330
     13 O          -7.5706   -5.0244   -1.5927 O.2     1  UNL1       -0.2740
     14 N          -6.3876   -6.7349   -2.3655 N.am    1  UNL1       -0.2843
     15 C          -7.4051   -7.6424   -2.0434 C.ar    1  UNL1        0.0371
     16 C          -7.6407   -8.7397   -2.8601 C.ar    1  UNL1       -0.0368
     17 C          -8.6445   -9.6357   -2.5438 C.ar    1  UNL1       -0.0144
     18 C          -9.4182   -9.4413   -1.4115 C.ar    1  UNL1        0.1663
     19 O         -10.4517  -10.1645   -0.8874 O.3     1  UNL1       -0.4526
     20 C         -10.5770   -9.7224    0.4771 C.3     1  UNL1        0.2332
     21 O         -10.0700   -8.3751    0.4483 O.3     1  UNL1       -0.4525
     22 C          -9.1839   -8.3410   -0.5896 C.ar    1  UNL1        0.1680
     23 C          -8.1744   -7.4472   -0.9040 C.ar    1  UNL1        0.0051
     24 C          -6.5206   -2.2633   -2.8209 C.3     1  UNL1        0.0460
     25 C          -5.5462   -1.5664   -3.7352 C.ar    1  UNL1       -0.0317
     26 C          -4.9973   -0.3530   -3.3646 C.ar    1  UNL1       -0.0573
     27 C          -4.1035    0.2862   -4.2033 C.ar    1  UNL1       -0.0615
     28 C          -3.7581   -0.2882   -5.4123 C.ar    1  UNL1       -0.0617
     29 C          -4.3063   -1.5020   -5.7824 C.ar    1  UNL1       -0.0615
     30 C          -5.1968   -2.1433   -4.9419 C.ar    1  UNL1       -0.0573
     31 C          -7.7939   -2.4311    0.9432 C.ar    1  UNL1        0.0101
     32 C          -8.7722   -2.9041    1.8022 C.ar    1  UNL1        0.1633
     33 O          -9.8986   -2.1740    2.0203 O.3     1  UNL1       -0.4914
     34 C         -10.0075   -0.9274    1.3301 C.3     1  UNL1        0.0790
     35 H         -10.1399   -6.1030    4.5750 H       1  UNL1        0.0660
     36 H          -9.1851   -6.6191    3.1642 H       1  UNL1        0.0660
     37 H          -8.3897   -5.7840    4.5200 H       1  UNL1        0.0660
     38 H          -7.3084   -5.8121    2.7219 H       1  UNL1        0.0656
     39 H          -5.5807   -4.9665    1.1858 H       1  UNL1        0.0638
     40 H          -5.1331   -4.4703   -3.3606 H       1  UNL1        0.0540
     41 H          -4.5207   -4.7881   -1.7198 H       1  UNL1        0.0540
     42 H          -5.5825   -7.0460   -2.8081 H       1  UNL1        0.1548
     43 H          -7.0391   -8.8934   -3.7438 H       1  UNL1        0.0637
     44 H          -8.8261  -10.4886   -3.1809 H       1  UNL1        0.0656
     45 H         -11.6216   -9.7319    0.7884 H       1  UNL1        0.1166
     46 H          -9.9737  -10.3445    1.1382 H       1  UNL1        0.1166
     47 H          -7.9880   -6.5963   -0.2656 H       1  UNL1        0.0674
     48 H          -7.2056   -2.8693   -3.4140 H       1  UNL1        0.0493
     49 H          -7.0864   -1.5203   -2.2588 H       1  UNL1        0.0493
     50 H          -5.2672    0.0958   -2.4201 H       1  UNL1        0.0621
     51 H          -3.6753    1.2346   -3.9141 H       1  UNL1        0.0618
     52 H          -3.0603    0.2116   -6.0678 H       1  UNL1        0.0618
     53 H          -4.0367   -1.9506   -6.7271 H       1  UNL1        0.0618
     54 H          -5.6251   -3.0917   -5.2310 H       1  UNL1        0.0621
     55 H          -7.9267   -1.4831    0.4431 H       1  UNL1        0.0675
     56 H          -9.1788   -0.2800    1.6165 H       1  UNL1        0.0660
     57 H          -9.9762   -1.1035    0.2548 H       1  UNL1        0.0660
     58 H         -10.9506   -0.4480    1.5924 H       1  UNL1        0.0660
@<TRIPOS>BOND
     1     1     2    1
     2     1    35    1
     3     1    36    1
     4     1    37    1
     5     2     3    1
     6     3    32   ar
     7     3     4   ar
     8     4     5   ar
     9     4    38    1
    10     5     6   ar
    11     5    39    1
    12     6     7    1
    13     6    31   ar
    14     7     8    2
    15     7     9    2
    16     7    10    1
    17    10    11    1
    18    10    24    1
    19    11    12    1
    20    11    40    1
    21    11    41    1
    22    12    13    2
    23    12    14   am
    24    14    15    1
    25    14    42    1
    26    15    23   ar
    27    15    16   ar
    28    16    17   ar
    29    16    43    1
    30    17    18   ar
    31    17    44    1
    32    18    22   ar
    33    18    19    1
    34    19    20    1
    35    20    21    1
    36    20    45    1
    37    20    46    1
    38    21    22    1
    39    22    23   ar
    40    23    47    1
    41    24    25    1
    42    24    48    1
    43    24    49    1
    44    25    30   ar
    45    25    26   ar
    46    26    27   ar
    47    26    50    1
    48    27    28   ar
    49    27    51    1
    50    28    29   ar
    51    28    52    1
    52    29    30   ar
    53    29    53    1
    54    30    54    1
    55    31    32   ar
    56    31    55    1
    57    32    33    1
    58    33    34    1
    59    34    56    1
    60    34    57    1
    61    34    58    1
