@<TRIPOS>MOLECULE
ZINC000252477004
 54 56 0 0 0
SMALL
GASTEIGER

@<TRIPOS>ATOM
      1 C          -0.6763    1.6860   -0.4120 C.3     1  UNL1       -0.0387
      2 C          -0.3864    0.1885   -0.2921 C.3     1  UNL1        0.0569
      3 H           0.1132   -0.1585   -1.1965 H       1  UNL1        0.0593
      4 C          -1.7019   -0.5733   -0.1110 C.3     1  UNL1       -0.0157
      5 C          -1.3990   -2.0641    0.0685 C.3     1  UNL1        0.0404
      6 H          -2.3270   -2.6050    0.2537 H       1  UNL1        0.0396
      7 C          -0.7440   -2.5992   -1.1788 C.2     1  UNL1        0.2189
      8 O          -0.4225   -1.8400   -2.0684 O.2     1  UNL1       -0.2753
      9 N          -0.5154   -3.9213   -1.3058 N.am    1  UNL1       -0.2987
     10 C          -1.0073   -4.8661   -0.2932 C.3     1  UNL1        0.0291
     11 C          -1.8659   -5.9287   -0.9904 C.3     1  UNL1        0.0363
     12 N          -1.1207   -6.4515   -2.1442 N.3     1  UNL1       -0.1736
     13 S          -0.8408   -8.0761   -2.3008 S.O2    1  UNL1        0.0609
     14 O           0.3041   -8.2078   -3.1321 O.2     1  UNL1       -0.1528
     15 O          -0.9184   -8.6246   -0.9922 O.2     1  UNL1       -0.1528
     16 C          -2.1928   -8.7535   -3.2052 C.ar    1  UNL1        0.1055
     17 C          -3.3110   -9.2137   -2.5353 C.ar    1  UNL1       -0.0348
     18 C          -4.3717   -9.7452   -3.2448 C.ar    1  UNL1       -0.0483
     19 C          -4.3144   -9.8160   -4.6242 C.ar    1  UNL1        0.0549
     20 C          -5.4705  -10.3958   -5.3976 C.3     1  UNL1        0.4174
     21 F          -6.3729   -9.3769   -5.7211 F       1  UNL1       -0.1659
     22 F          -4.9953  -10.9882   -6.5725 F       1  UNL1       -0.1659
     23 F          -6.1166  -11.3605   -4.6172 F       1  UNL1       -0.1659
     24 C          -3.1967   -9.3546   -5.2941 C.ar    1  UNL1       -0.0483
     25 C          -2.1376   -8.8196   -4.5848 C.ar    1  UNL1       -0.0348
     26 C          -0.6288   -5.5067   -3.1568 C.3     1  UNL1        0.0363
     27 C           0.2249   -4.4447   -2.4625 C.3     1  UNL1        0.0291
     28 C          -0.4552   -2.2420    1.2617 C.3     1  UNL1       -0.0157
     29 C           0.8122   -1.4157    1.0277 C.3     1  UNL1        0.0569
     30 H           1.3275   -1.7839    0.1406 H       1  UNL1        0.0593
     31 C           1.7343   -1.5407    2.2421 C.3     1  UNL1       -0.0387
     32 O           0.4572   -0.0446    0.8376 O.3     1  UNL1       -0.3738
     33 H           0.2604    2.2283   -0.5404 H       1  UNL1        0.0255
     34 H          -1.3201    1.8636   -1.2734 H       1  UNL1        0.0255
     35 H          -1.1759    2.0329    0.4926 H       1  UNL1        0.0255
     36 H          -2.2215   -0.1985    0.7708 H       1  UNL1        0.0297
     37 H          -2.3286   -0.4324   -0.9916 H       1  UNL1        0.0297
     38 H          -0.1623   -5.3452    0.2012 H       1  UNL1        0.0478
     39 H          -1.6104   -4.3332    0.4419 H       1  UNL1        0.0478
     40 H          -2.0798   -6.7402   -0.2949 H       1  UNL1        0.0459
     41 H          -2.7990   -5.4796   -1.3306 H       1  UNL1        0.0459
     42 H          -3.3559   -9.1584   -1.4577 H       1  UNL1        0.0637
     43 H          -5.2451  -10.1053   -2.7215 H       1  UNL1        0.0624
     44 H          -3.1520   -9.4096   -6.3718 H       1  UNL1        0.0624
     45 H          -1.2644   -8.4591   -5.1082 H       1  UNL1        0.0637
     46 H          -0.0257   -6.0396   -3.8920 H       1  UNL1        0.0459
     47 H          -1.4738   -5.0276   -3.6512 H       1  UNL1        0.0459
     48 H           0.4381   -3.6339   -3.1591 H       1  UNL1        0.0478
     49 H           1.1585   -4.8917   -2.1208 H       1  UNL1        0.0478
     50 H          -0.9496   -1.9009    2.1713 H       1  UNL1        0.0297
     51 H          -0.1903   -3.2945    1.3629 H       1  UNL1        0.0297
     52 H           2.0043   -2.5867    2.3872 H       1  UNL1        0.0255
     53 H           2.6366   -0.9523    2.0753 H       1  UNL1        0.0255
     54 H           1.2190   -1.1720    3.1291 H       1  UNL1        0.0255
@<TRIPOS>BOND
     1     1     2    1
     2     1    33    1
     3     1    34    1
     4     1    35    1
     5     2     3    1
     6     2    32    1
     7     2     4    1
     8     4     5    1
     9     4    36    1
    10     4    37    1
    11     5     6    1
    12     5     7    1
    13     5    28    1
    14     7     8    2
    15     7     9   am
    16     9    27    1
    17     9    10    1
    18    10    11    1
    19    10    38    1
    20    10    39    1
    21    11    12    1
    22    11    40    1
    23    11    41    1
    24    13    12    1
    25    12    26    1
    26    13    14    2
    27    13    15    2
    28    13    16    1
    29    16    25   ar
    30    16    17   ar
    31    17    18   ar
    32    17    42    1
    33    18    19   ar
    34    18    43    1
    35    19    20    1
    36    19    24   ar
    37    20    21    1
    38    20    22    1
    39    20    23    1
    40    24    25   ar
    41    24    44    1
    42    25    45    1
    43    26    27    1
    44    26    46    1
    45    26    47    1
    46    27    48    1
    47    27    49    1
    48    28    29    1
    49    28    50    1
    50    28    51    1
    51    29    30    1
    52    29    31    1
    53    29    32    1
    54    31    52    1
    55    31    53    1
    56    31    54    1
