@<TRIPOS>MOLECULE
ZINC000009806361
 56 58 0 0 0
SMALL
GASTEIGER

@<TRIPOS>ATOM
      1 C           0.7725    1.3270    1.8428 C.3     1  UNL1       -0.0397
      2 C           0.8477    0.0881    0.9881 C.ar    1  UNL1       -0.0498
      3 C          -0.2781   -0.3636    0.3251 C.ar    1  UNL1       -0.0540
      4 C          -0.2091   -1.5000   -0.4589 C.ar    1  UNL1       -0.0236
      5 C          -1.4365   -1.9927   -1.1812 C.3     1  UNL1       -0.0378
      6 C           0.9859   -2.1842   -0.5807 C.ar    1  UNL1        0.1113
      7 S           1.0739   -3.6324   -1.5806 S.O2    1  UNL1        0.0616
      8 O          -0.1316   -4.3499   -1.3545 O.2     1  UNL1       -0.1528
      9 O           1.4944   -3.2055   -2.8691 O.2     1  UNL1       -0.1528
     10 N           2.2972   -4.5713   -0.9768 N.3     1  UNL1       -0.1720
     11 C           3.6617   -4.6628   -1.5272 C.3     1  UNL1        0.0209
     12 C           4.1877   -6.0416   -1.0561 C.3     1  UNL1       -0.0370
     13 C           3.5728   -6.1406    0.3649 C.3     1  UNL1       -0.0330
     14 C           2.2040   -5.4467    0.2007 C.3     1  UNL1        0.0474
     15 H           1.4266   -6.1937    0.0405 H       1  UNL1        0.0495
     16 C           1.8848   -4.6234    1.4501 C.3     1  UNL1        0.0291
     17 N           0.4996   -4.1512    1.3830 N.am    1  UNL1       -0.3098
     18 C           0.0259   -3.3156    2.3284 C.2     1  UNL1        0.2441
     19 O           0.7731   -2.8754    3.1801 O.2     1  UNL1       -0.2702
     20 C          -1.4026   -2.9345    2.3297 C.ar    1  UNL1        0.0367
     21 C          -2.2857   -3.5225    1.4227 C.ar    1  UNL1       -0.0491
     22 C          -3.6175   -3.1628    1.4295 C.ar    1  UNL1       -0.0494
     23 C          -4.0783   -2.2210    2.3324 C.ar    1  UNL1        0.0549
     24 C          -5.5344   -1.8326    2.3337 C.3     1  UNL1        0.4174
     25 F          -6.2399   -2.6708    3.2037 F       1  UNL1       -0.1659
     26 F          -5.6627   -0.5057    2.7581 F       1  UNL1       -0.1659
     27 F          -6.0523   -1.9606    1.0404 F       1  UNL1       -0.1659
     28 C          -3.2083   -1.6347    3.2343 C.ar    1  UNL1       -0.0494
     29 C          -1.8751   -1.9894    3.2416 C.ar    1  UNL1       -0.0491
     30 C           2.1119   -1.7320    0.0815 C.ar    1  UNL1       -0.0236
     31 C           3.4147   -2.4776   -0.0517 C.3     1  UNL1       -0.0378
     32 C           2.0438   -0.5934    0.8624 C.ar    1  UNL1       -0.0540
     33 H           0.9976    2.2026    1.2340 H       1  UNL1        0.0278
     34 H          -0.2308    1.4214    2.2583 H       1  UNL1        0.0278
     35 H           1.4964    1.2529    2.6544 H       1  UNL1        0.0278
     36 H          -1.2116    0.1711    0.4200 H       1  UNL1        0.0623
     37 H          -1.5076   -1.5031   -2.1525 H       1  UNL1        0.0278
     38 H          -1.3666   -3.0713   -1.3223 H       1  UNL1        0.0278
     39 H          -2.3231   -1.7601   -0.5914 H       1  UNL1        0.0278
     40 H           3.6354   -4.6186   -2.6160 H       1  UNL1        0.0444
     41 H           4.2858   -3.8626   -1.1292 H       1  UNL1        0.0444
     42 H           3.8180   -6.8410   -1.6984 H       1  UNL1        0.0279
     43 H           5.2768   -6.0501   -1.0120 H       1  UNL1        0.0279
     44 H           3.4467   -7.1827    0.6588 H       1  UNL1        0.0282
     45 H           4.1875   -5.6063    1.0892 H       1  UNL1        0.0282
     46 H           2.0146   -5.2437    2.3369 H       1  UNL1        0.0478
     47 H           2.5581   -3.7679    1.5033 H       1  UNL1        0.0478
     48 H          -0.0767   -4.4400    0.6581 H       1  UNL1        0.1491
     49 H          -1.9271   -4.2572    0.7170 H       1  UNL1        0.0625
     50 H          -4.3019   -3.6170    0.7283 H       1  UNL1        0.0623
     51 H          -3.5744   -0.9005    3.9367 H       1  UNL1        0.0623
     52 H          -1.1970   -1.5313    3.9464 H       1  UNL1        0.0625
     53 H           3.8283   -2.3115   -1.0464 H       1  UNL1        0.0278
     54 H           4.1180   -2.1172    0.6990 H       1  UNL1        0.0278
     55 H           3.2401   -3.5433    0.0959 H       1  UNL1        0.0278
     56 H           2.9235   -0.2401    1.3798 H       1  UNL1        0.0623
@<TRIPOS>BOND
     1     1     2    1
     2     1    33    1
     3     1    34    1
     4     1    35    1
     5     2    32   ar
     6     2     3   ar
     7     3     4   ar
     8     3    36    1
     9     4     5    1
    10     4     6   ar
    11     5    37    1
    12     5    38    1
    13     5    39    1
    14     6     7    1
    15     6    30   ar
    16     7     8    2
    17     7     9    2
    18     7    10    1
    19    10    14    1
    20    10    11    1
    21    11    12    1
    22    11    40    1
    23    11    41    1
    24    12    13    1
    25    12    42    1
    26    12    43    1
    27    13    14    1
    28    13    44    1
    29    13    45    1
    30    14    15    1
    31    14    16    1
    32    16    17    1
    33    16    46    1
    34    16    47    1
    35    17    18   am
    36    17    48    1
    37    18    19    2
    38    18    20    1
    39    20    29   ar
    40    20    21   ar
    41    21    22   ar
    42    21    49    1
    43    22    23   ar
    44    22    50    1
    45    23    24    1
    46    23    28   ar
    47    24    25    1
    48    24    26    1
    49    24    27    1
    50    28    29   ar
    51    28    51    1
    52    29    52    1
    53    30    31    1
    54    30    32   ar
    55    31    53    1
    56    31    54    1
    57    31    55    1
    58    32    56    1
