@<TRIPOS>MOLECULE
ZINC000062132517
 32 33 0 0 0
SMALL
GASTEIGER

@<TRIPOS>ATOM
      1 O           0.0021   -0.0041    0.0020 O.co2   1  UNL1       -0.2460
      2 C          -0.0145    1.2150    0.0087 C.2     1  UNL1        0.3603
      3 O           1.0330    1.8389    0.0021 O.co2   1  UNL1       -0.2460
      4 C          -1.3296    1.9507    0.0190 C.3     1  UNL1        0.0762
      5 H          -2.1364    1.2998    0.3558 H       1  UNL1        0.0428
      6 C          -1.6436    2.5481   -1.3782 C.3     1  UNL1       -0.0242
      7 C          -2.5510    3.7508   -1.0439 C.3     1  UNL1        0.0213
      8 N          -2.2862    4.1222    0.3538 N.3     1  UNL1       -0.1758
      9 S          -3.0347    5.3422    1.1867 S.O2    1  UNL1        0.0609
     10 O          -2.1500    5.7141    2.2347 O.2     1  UNL1       -0.1528
     11 O          -3.5136    6.2585    0.2118 O.2     1  UNL1       -0.1528
     12 C          -4.4583    4.6490    1.9597 C.ar    1  UNL1        0.1055
     13 C          -5.6685    4.6328    1.2919 C.ar    1  UNL1       -0.0348
     14 C          -6.7853    4.0890    1.8984 C.ar    1  UNL1       -0.0483
     15 C          -6.6919    3.5610    3.1725 C.ar    1  UNL1        0.0549
     16 C          -7.9095    2.9687    3.8339 C.3     1  UNL1        0.4174
     17 F          -7.9898    1.6059    3.5281 F       1  UNL1       -0.1659
     18 F          -7.8125    3.1306    5.2201 F       1  UNL1       -0.1659
     19 F          -9.0567    3.6196    3.3675 F       1  UNL1       -0.1659
     20 C          -5.4813    3.5761    3.8398 C.ar    1  UNL1       -0.0483
     21 C          -4.3636    4.1164    3.2318 C.ar    1  UNL1       -0.0348
     22 C          -1.2449    3.2274    0.8922 C.3     1  UNL1        0.0336
     23 H          -0.7293    2.8798   -1.8701 H       1  UNL1        0.0286
     24 H          -2.1747    1.8244   -1.9965 H       1  UNL1        0.0286
     25 H          -2.3144    4.5876   -1.7010 H       1  UNL1        0.0444
     26 H          -3.5976    3.4693   -1.1607 H       1  UNL1        0.0444
     27 H          -5.7415    5.0452    0.2964 H       1  UNL1        0.0637
     28 H          -7.7310    4.0769    1.3769 H       1  UNL1        0.0624
     29 H          -5.4082    3.1633    4.8351 H       1  UNL1        0.0624
     30 H          -3.4178    4.1281    3.7532 H       1  UNL1        0.0637
     31 H          -1.4519    2.9891    1.9355 H       1  UNL1        0.0452
     32 H          -0.2618    3.6879    0.7952 H       1  UNL1        0.0452
@<TRIPOS>BOND
     1     1     2   ar
     2     2     3   ar
     3     2     4    1
     4     4     5    1
     5     4    22    1
     6     4     6    1
     7     6     7    1
     8     6    23    1
     9     6    24    1
    10     7     8    1
    11     7    25    1
    12     7    26    1
    13     9     8    1
    14     8    22    1
    15     9    10    2
    16     9    11    2
    17     9    12    1
    18    12    21   ar
    19    12    13   ar
    20    13    14   ar
    21    13    27    1
    22    14    15   ar
    23    14    28    1
    24    15    16    1
    25    15    20   ar
    26    16    17    1
    27    16    18    1
    28    16    19    1
    29    20    21   ar
    30    20    29    1
    31    21    30    1
    32    22    31    1
    33    22    32    1
