@<TRIPOS>MOLECULE
ZINC000011612632
 50 52 0 0 0
SMALL
GASTEIGER

@<TRIPOS>ATOM
      1 O           1.5246   -0.5019    1.6513 O.2     1  UNL1       -0.2754
      2 C           1.1015    0.4665    1.0560 C.2     1  UNL1        0.2187
      3 C           1.0451    0.4600   -0.4499 C.3     1  UNL1        0.0415
      4 C           1.7330   -0.7995   -0.9805 C.3     1  UNL1        0.0401
      5 H           1.3549   -1.6733   -0.4500 H       1  UNL1        0.0484
      6 C           3.2461   -0.6857   -0.7700 C.3     1  UNL1       -0.0352
      7 C           3.9397   -1.8818   -1.4260 C.3     1  UNL1       -0.0504
      8 C           3.6595   -1.8740   -2.9305 C.3     1  UNL1       -0.0385
      9 C           2.1511   -2.0012   -3.1656 C.3     1  UNL1        0.0208
     10 N           1.4619   -0.9403   -2.4177 N.3     1  UNL1       -0.1731
     11 S           0.4051    0.0804   -3.1816 S.O2    1  UNL1        0.0611
     12 O           0.4995    1.3302   -2.5120 O.2     1  UNL1       -0.1528
     13 O           0.6347   -0.0739   -4.5754 O.2     1  UNL1       -0.1528
     14 C          -1.2203   -0.5268   -2.8750 C.ar    1  UNL1        0.1055
     15 C          -1.7358   -1.5460   -3.6537 C.ar    1  UNL1       -0.0353
     16 C          -3.0109   -2.0224   -3.4132 C.ar    1  UNL1       -0.0599
     17 C          -3.7705   -1.4799   -2.3936 C.ar    1  UNL1       -0.0616
     18 C          -3.2548   -0.4613   -1.6142 C.ar    1  UNL1       -0.0599
     19 C          -1.9780    0.0122   -1.8520 C.ar    1  UNL1       -0.0353
     20 N           0.6766    1.5463    1.7416 N.am    1  UNL1       -0.2855
     21 C           0.8472    1.6057    3.1291 C.ar    1  UNL1        0.0334
     22 C           2.0083    1.1117    3.7092 C.ar    1  UNL1       -0.0399
     23 C           2.1737    1.1718    5.0791 C.ar    1  UNL1       -0.0484
     24 C           1.1845    1.7227    5.8729 C.ar    1  UNL1        0.0549
     25 C           1.3680    1.7863    7.3673 C.3     1  UNL1        0.4174
     26 F           1.9893    2.9920    7.7101 F       1  UNL1       -0.1659
     27 F           0.1196    1.7103    7.9942 F       1  UNL1       -0.1659
     28 F           2.1655    0.7155    7.7852 F       1  UNL1       -0.1659
     29 C           0.0274    2.2159    5.2983 C.ar    1  UNL1       -0.0484
     30 C          -0.1416    2.1640    3.9286 C.ar    1  UNL1       -0.0399
     31 H           0.0047    0.4700   -0.7746 H       1  UNL1        0.0374
     32 H           1.5548    1.3426   -0.8364 H       1  UNL1        0.0374
     33 H           3.6079    0.2377   -1.2222 H       1  UNL1        0.0281
     34 H           3.4653   -0.6787    0.2977 H       1  UNL1        0.0281
     35 H           5.0144   -1.8162   -1.2564 H       1  UNL1        0.0266
     36 H           3.5594   -2.8058   -0.9905 H       1  UNL1        0.0266
     37 H           4.0174   -0.9394   -3.3624 H       1  UNL1        0.0278
     38 H           4.1729   -2.7128   -3.4005 H       1  UNL1        0.0278
     39 H           1.9369   -1.8969   -4.2292 H       1  UNL1        0.0444
     40 H           1.8075   -2.9745   -2.8153 H       1  UNL1        0.0444
     41 H          -1.1423   -1.9698   -4.4503 H       1  UNL1        0.0637
     42 H          -3.4139   -2.8181   -4.0221 H       1  UNL1        0.0618
     43 H          -4.7671   -1.8516   -2.2061 H       1  UNL1        0.0618
     44 H          -3.8483   -0.0372   -0.8178 H       1  UNL1        0.0618
     45 H          -1.5750    0.8079   -1.2431 H       1  UNL1        0.0637
     46 H           0.2525    2.2822    1.2732 H       1  UNL1        0.1548
     47 H           2.7809    0.6807    3.0898 H       1  UNL1        0.0636
     48 H           3.0764    0.7878    5.5308 H       1  UNL1        0.0624
     49 H          -0.7434    2.6456    5.9210 H       1  UNL1        0.0624
     50 H          -1.0455    2.5494    3.4804 H       1  UNL1        0.0636
@<TRIPOS>BOND
     1     1     2    2
     2     2     3    1
     3     2    20   am
     4     3     4    1
     5     3    31    1
     6     3    32    1
     7     4     5    1
     8     4    10    1
     9     4     6    1
    10     6     7    1
    11     6    33    1
    12     6    34    1
    13     7     8    1
    14     7    35    1
    15     7    36    1
    16     8     9    1
    17     8    37    1
    18     8    38    1
    19     9    10    1
    20     9    39    1
    21     9    40    1
    22    11    10    1
    23    11    12    2
    24    11    13    2
    25    11    14    1
    26    14    19   ar
    27    14    15   ar
    28    15    16   ar
    29    15    41    1
    30    16    17   ar
    31    16    42    1
    32    17    18   ar
    33    17    43    1
    34    18    19   ar
    35    18    44    1
    36    19    45    1
    37    20    21    1
    38    20    46    1
    39    21    30   ar
    40    21    22   ar
    41    22    23   ar
    42    22    47    1
    43    23    24   ar
    44    23    48    1
    45    24    25    1
    46    24    29   ar
    47    25    26    1
    48    25    27    1
    49    25    28    1
    50    29    30   ar
    51    29    49    1
    52    30    50    1
