@<TRIPOS>MOLECULE
ZINC000079057839
 57 58 0 0 0
SMALL
GASTEIGER

@<TRIPOS>ATOM
      1 C          -0.0187    1.5258    0.0104 C.3     1  UNL1       -0.0507
      2 C           0.0021   -0.0041    0.0020 C.3     1  UNL1        0.0177
      3 N           0.7106   -0.4894    1.1889 N.3     1  UNL1       -0.1771
      4 C          -0.0062   -0.6460    2.4569 C.3     1  UNL1        0.0177
      5 C          -0.6935   -2.0126    2.4888 C.3     1  UNL1       -0.0507
      6 S           2.3218   -0.8609    1.0971 S.O2    1  UNL1        0.0622
      7 O           2.5823   -1.7795    2.1496 O.2     1  UNL1       -0.1528
      8 O           2.5905   -1.1471   -0.2686 O.2     1  UNL1       -0.1528
      9 C           3.2182    0.6060    1.4837 C.ar    1  UNL1        0.1218
     10 C           3.9087    0.6916    2.6446 C.ar    1  UNL1        0.0348
     11 N           4.6036    1.8154    2.9566 N.ar    1  UNL1       -0.3045
     12 C           5.3429    1.8826    4.2196 C.3     1  UNL1        0.1024
     13 C           6.7456    1.3738    4.0083 C.2     1  UNL1        0.2332
     14 O           7.0935    0.9926    2.9108 O.2     1  UNL1       -0.2738
     15 N           7.6134    1.3424    5.0390 N.am    1  UNL1       -0.3091
     16 C           8.9770    0.8478    4.8336 C.3     1  UNL1        0.0437
     17 H           9.3196    1.1296    3.8380 H       1  UNL1        0.0518
     18 C           8.9920   -0.6765    4.9656 C.3     1  UNL1       -0.0445
     19 C           9.9053    1.4598    5.8846 C.3     1  UNL1        0.0662
     20 O           9.5265    0.9965    7.1823 O.3     1  UNL1       -0.3724
     21 C          10.3349    1.5116    8.2422 C.3     1  UNL1        0.0841
     22 H          10.7250    2.4968    7.9865 H       1  UNL1        0.0620
     23 C           9.5354    1.5620    9.5727 C.3     1  UNL1       -0.0009
     24 C          10.6788    1.4195   10.6085 C.3     1  UNL1        0.0502
     25 O          11.6153    0.5091   10.0105 O.3     1  UNL1       -0.3771
     26 C          11.4831    0.5369    8.5810 C.3     1  UNL1        0.0739
     27 C           4.6215    2.8689    2.1180 C.ar    1  UNL1        0.2518
     28 O           5.2513    3.8722    2.4123 O.2     1  UNL1       -0.2677
     29 C           3.9157    2.8134    0.9040 C.ar    1  UNL1        0.0048
     30 C           3.2213    1.6832    0.5864 C.ar    1  UNL1       -0.0288
     31 H           1.0039    1.9031    0.0027 H       1  UNL1        0.0243
     32 H          -0.5459    1.8868   -0.8726 H       1  UNL1        0.0243
     33 H          -0.5289    1.8773    0.9072 H       1  UNL1        0.0243
     34 H          -1.0205   -0.3814    0.0098 H       1  UNL1        0.0441
     35 H           0.5123   -0.3556   -0.8948 H       1  UNL1        0.0441
     36 H           0.6997   -0.5749    3.2845 H       1  UNL1        0.0441
     37 H          -0.7557    0.1399    2.5501 H       1  UNL1        0.0441
     38 H          -1.3993   -2.0837    1.6613 H       1  UNL1        0.0243
     39 H           0.0560   -2.7985    2.3957 H       1  UNL1        0.0243
     40 H          -1.2268   -2.1291    3.4323 H       1  UNL1        0.0243
     41 H           3.9066   -0.1428    3.3303 H       1  UNL1        0.0830
     42 H           5.3793    2.9158    4.5648 H       1  UNL1        0.0589
     43 H           4.8419    1.2673    4.9669 H       1  UNL1        0.0589
     44 H           7.3351    1.6472    5.9168 H       1  UNL1        0.1491
     45 H           8.6494   -0.9583    5.9612 H       1  UNL1        0.0248
     46 H           8.3307   -1.1125    4.2168 H       1  UNL1        0.0248
     47 H          10.0065   -1.0445    4.8128 H       1  UNL1        0.0248
     48 H          10.9335    1.1626    5.6785 H       1  UNL1        0.0578
     49 H           9.8272    2.5465    5.8497 H       1  UNL1        0.0578
     50 H           9.0199    2.5158    9.6853 H       1  UNL1        0.0313
     51 H           8.8359    0.7289    9.6425 H       1  UNL1        0.0313
     52 H          11.1511    2.3857   10.7860 H       1  UNL1        0.0560
     53 H          10.2947    1.0081   11.5419 H       1  UNL1        0.0560
     54 H          11.2394   -0.4597    8.2127 H       1  UNL1        0.0586
     55 H          12.4137    0.8816    8.1302 H       1  UNL1        0.0586
     56 H           3.9262    3.6555    0.2278 H       1  UNL1        0.0672
     57 H           2.6733    1.6219   -0.3422 H       1  UNL1        0.0639
@<TRIPOS>BOND
     1     1     2    1
     2     1    31    1
     3     1    32    1
     4     1    33    1
     5     2     3    1
     6     2    34    1
     7     2    35    1
     8     3     4    1
     9     6     3    1
    10     4     5    1
    11     4    36    1
    12     4    37    1
    13     5    38    1
    14     5    39    1
    15     5    40    1
    16     6     7    2
    17     6     8    2
    18     6     9    1
    19     9    30   ar
    20     9    10   ar
    21    10    11   ar
    22    10    41    1
    23    11    12    1
    24    11    27   ar
    25    12    13    1
    26    12    42    1
    27    12    43    1
    28    13    14    2
    29    13    15   am
    30    15    16    1
    31    15    44    1
    32    16    17    1
    33    16    18    1
    34    16    19    1
    35    18    45    1
    36    18    46    1
    37    18    47    1
    38    19    20    1
    39    19    48    1
    40    19    49    1
    41    20    21    1
    42    21    22    1
    43    21    26    1
    44    21    23    1
    45    23    24    1
    46    23    50    1
    47    23    51    1
    48    24    25    1
    49    24    52    1
    50    24    53    1
    51    25    26    1
    52    26    54    1
    53    26    55    1
    54    27    28    2
    55    27    29   ar
    56    29    30   ar
    57    29    56    1
    58    30    57    1
