@<TRIPOS>MOLECULE
ZINC000096323290
 50 52 0 0 0
SMALL
GASTEIGER

@<TRIPOS>ATOM
      1 C          -0.3588    1.8678    0.9643 C.3     1  UNL1       -0.0187
      2 C          -0.5170    0.3876    1.1990 C.ar    1  UNL1        0.0865
      3 N          -0.8314   -0.5033    0.2939 N.ar    1  UNL1       -0.1745
      4 N          -0.8769   -1.7590    0.9132 N.ar    1  UNL1       -0.2694
      5 C          -1.1920   -3.0316    0.2593 C.3     1  UNL1        0.0305
      6 C          -0.5793   -1.5895    2.2185 C.ar    1  UNL1        0.0624
      7 C          -0.5119   -2.6741    3.2626 C.3     1  UNL1       -0.0208
      8 C          -0.3470   -0.2718    2.4207 C.ar    1  UNL1        0.1485
      9 S           0.0836    0.4815    3.9542 S.O2    1  UNL1        0.0644
     10 O          -0.3027    1.8453    3.8538 O.2     1  UNL1       -0.1527
     11 O          -0.3892   -0.3871    4.9747 O.2     1  UNL1       -0.1527
     12 N           1.7362    0.4701    4.0591 N.3     1  UNL1       -0.1735
     13 C           2.4392   -0.6676    4.6682 C.3     1  UNL1        0.0364
     14 C           3.4638   -1.2063    3.6621 C.3     1  UNL1        0.0294
     15 N           4.2537   -0.0790    3.1472 N.am    1  UNL1       -0.2950
     16 C           5.5988   -0.0887    3.2317 C.2     1  UNL1        0.2467
     17 O           6.2451    0.8164    2.7411 O.2     1  UNL1       -0.2700
     18 C           6.2882   -1.2001    3.9211 C.ar    1  UNL1        0.0369
     19 C           5.9974   -2.5226    3.5829 C.ar    1  UNL1       -0.0491
     20 C           6.6446   -3.5551    4.2298 C.ar    1  UNL1       -0.0494
     21 C           7.5798   -3.2818    5.2122 C.ar    1  UNL1        0.0549
     22 C           8.2826   -4.4146    5.9149 C.3     1  UNL1        0.4174
     23 F           9.4518   -4.7410    5.2196 F       1  UNL1       -0.1659
     24 F           8.6086   -4.0242    7.2182 F       1  UNL1       -0.1659
     25 F           7.4396   -5.5303    5.9594 F       1  UNL1       -0.1659
     26 C           7.8731   -1.9730    5.5519 C.ar    1  UNL1       -0.0494
     27 C           7.2369   -0.9312    4.9090 C.ar    1  UNL1       -0.0491
     28 C           3.5507    1.0588    2.5380 C.3     1  UNL1        0.0294
     29 C           2.5264    1.5949    3.5391 C.3     1  UNL1        0.0364
     30 H           0.6745    2.0844    0.6935 H       1  UNL1        0.0294
     31 H          -1.0195    2.1801    0.1555 H       1  UNL1        0.0294
     32 H          -0.6172    2.4096    1.8741 H       1  UNL1        0.0294
     33 H          -0.2737   -3.4862   -0.1124 H       1  UNL1        0.0473
     34 H          -1.6645   -3.7018    0.9773 H       1  UNL1        0.0473
     35 H          -1.8722   -2.8535   -0.5736 H       1  UNL1        0.0473
     36 H           0.5008   -3.0752    3.3049 H       1  UNL1        0.0293
     37 H          -0.7795   -2.2598    4.2346 H       1  UNL1        0.0293
     38 H          -1.2081   -3.4717    3.0034 H       1  UNL1        0.0293
     39 H           2.9521   -0.3393    5.5723 H       1  UNL1        0.0459
     40 H           1.7225   -1.4508    4.9152 H       1  UNL1        0.0459
     41 H           4.1232   -1.9190    4.1574 H       1  UNL1        0.0478
     42 H           2.9448   -1.6959    2.8381 H       1  UNL1        0.0478
     43 H           5.2671   -2.7373    2.8168 H       1  UNL1        0.0625
     44 H           6.4206   -4.5789    3.9691 H       1  UNL1        0.0623
     45 H           8.6043   -1.7664    6.3193 H       1  UNL1        0.0623
     46 H           7.4669    0.0900    5.1748 H       1  UNL1        0.0625
     47 H           4.2675    1.8419    2.2910 H       1  UNL1        0.0478
     48 H           3.0379    0.7304    1.6340 H       1  UNL1        0.0478
     49 H           1.8678    2.3074    3.0425 H       1  UNL1        0.0459
     50 H           3.0432    2.0845    4.3645 H       1  UNL1        0.0459
@<TRIPOS>BOND
     1     1     2    1
     2     1    30    1
     3     1    31    1
     4     1    32    1
     5     2     8   ar
     6     2     3   ar
     7     3     4   ar
     8     4     5    1
     9     4     6   ar
    10     5    33    1
    11     5    34    1
    12     5    35    1
    13     6     7    1
    14     6     8   ar
    15     7    36    1
    16     7    37    1
    17     7    38    1
    18     8     9    1
    19     9    10    2
    20     9    11    2
    21     9    12    1
    22    12    29    1
    23    12    13    1
    24    13    14    1
    25    13    39    1
    26    13    40    1
    27    14    15    1
    28    14    41    1
    29    14    42    1
    30    15    16   am
    31    15    28    1
    32    16    17    2
    33    16    18    1
    34    18    27   ar
    35    18    19   ar
    36    19    20   ar
    37    19    43    1
    38    20    21   ar
    39    20    44    1
    40    21    22    1
    41    21    26   ar
    42    22    23    1
    43    22    24    1
    44    22    25    1
    45    26    27   ar
    46    26    45    1
    47    27    46    1
    48    28    29    1
    49    28    47    1
    50    28    48    1
    51    29    49    1
    52    29    50    1
