@<TRIPOS>MOLECULE
ZINC000020033064
 62 64 0 0 0
SMALL
GASTEIGER

@<TRIPOS>ATOM
      1 C          -0.0178    1.4608    0.0101 C.3     1  UNL1        0.0086
      2 N           0.0021   -0.0041    0.0020 N.3     1  UNL1       -0.1827
      3 C           1.2806   -0.7192   -0.0140 C.3     1  UNL1        0.0086
      4 S          -1.4206   -0.8515    0.0111 S.O2    1  UNL1        0.0604
      5 O          -1.1207   -2.1334    0.5458 O.2     1  UNL1       -0.1529
      6 O          -2.3996    0.0139    0.5695 O.2     1  UNL1       -0.1529
      7 C          -1.8848   -1.1094   -1.6690 C.ar    1  UNL1        0.1055
      8 C          -2.6748   -0.1792   -2.3184 C.ar    1  UNL1       -0.0351
      9 C          -3.0389   -0.3815   -3.6365 C.ar    1  UNL1       -0.0567
     10 C          -2.6127   -1.5137   -4.3053 C.ar    1  UNL1       -0.0468
     11 C          -3.0101   -1.7345   -5.7421 C.3     1  UNL1       -0.0194
     12 C          -1.9620   -1.1071   -6.6634 C.3     1  UNL1        0.0279
     13 C          -2.3594   -1.3279   -8.1002 C.2     1  UNL1        0.2136
     14 O          -3.3804   -1.9280   -8.3616 O.2     1  UNL1       -0.2758
     15 N          -1.5802   -0.8585   -9.0946 N.am    1  UNL1       -0.3112
     16 C          -1.9665   -1.0732  -10.4914 C.3     1  UNL1        0.0368
     17 C          -0.9341   -0.4552  -11.3988 C.ar    1  UNL1       -0.0302
     18 C          -1.0661    0.8609  -11.8005 C.ar    1  UNL1       -0.0552
     19 C          -0.1191    1.4277  -12.6328 C.ar    1  UNL1       -0.0350
     20 C           0.9601    0.6787  -13.0631 C.ar    1  UNL1        0.1055
     21 S           2.1668    1.4010  -14.1245 S.O2    1  UNL1        0.0610
     22 O           2.7887    0.3261  -14.8152 O.2     1  UNL1       -0.1528
     23 O           1.5238    2.4817  -14.7862 O.2     1  UNL1       -0.1528
     24 N           3.3318    2.0716  -13.1573 N.3     1  UNL1       -0.1722
     25 C           3.2232    3.4645  -12.6952 C.3     1  UNL1        0.0440
     26 C           3.4290    3.4874  -11.1763 C.3     1  UNL1        0.0621
     27 O           4.6436    2.8050  -10.8555 O.3     1  UNL1       -0.3771
     28 C           4.6493    1.4209  -11.2133 C.3     1  UNL1        0.0621
     29 C           4.5032    1.2903  -12.7295 C.3     1  UNL1        0.0440
     30 C           1.0928   -0.6370  -12.6602 C.ar    1  UNL1       -0.0350
     31 C           0.1478   -1.2027  -11.8248 C.ar    1  UNL1       -0.0552
     32 C          -1.8217   -2.4432   -3.6564 C.ar    1  UNL1       -0.0567
     33 C          -1.4543   -2.2390   -2.3395 C.ar    1  UNL1       -0.0351
     34 H           1.0048    1.8381    0.0023 H       1  UNL1        0.0408
     35 H          -0.5450    1.8219   -0.8730 H       1  UNL1        0.0408
     36 H          -0.5280    1.8123    0.9069 H       1  UNL1        0.0408
     37 H           1.6074   -0.9021    1.0096 H       1  UNL1        0.0408
     38 H           1.1583   -1.6705   -0.5318 H       1  UNL1        0.0408
     39 H           2.0272   -0.1171   -0.5318 H       1  UNL1        0.0408
     40 H          -3.0077    0.7053   -1.7959 H       1  UNL1        0.0637
     41 H          -3.6567    0.3448   -4.1436 H       1  UNL1        0.0621
     42 H          -3.0749   -2.8043   -5.9409 H       1  UNL1        0.0318
     43 H          -3.9795   -1.2714   -5.9263 H       1  UNL1        0.0318
     44 H          -1.8972   -0.0374   -6.4646 H       1  UNL1        0.0361
     45 H          -0.9926   -1.5702   -6.4793 H       1  UNL1        0.0361
     46 H          -0.7636   -0.3786   -8.8855 H       1  UNL1        0.1490
     47 H          -2.0313   -2.1429  -10.6902 H       1  UNL1        0.0512
     48 H          -2.9359   -0.6101  -10.6755 H       1  UNL1        0.0512
     49 H          -1.9092    1.4461  -11.4644 H       1  UNL1        0.0621
     50 H          -0.2226    2.4558  -12.9473 H       1  UNL1        0.0637
     51 H           3.9881    4.0723  -13.1785 H       1  UNL1        0.0466
     52 H           2.2352    3.8557  -12.9377 H       1  UNL1        0.0466
     53 H           3.4900    4.5201  -10.8327 H       1  UNL1        0.0573
     54 H           2.5916    2.9892  -10.6878 H       1  UNL1        0.0573
     55 H           5.5882    0.9668  -10.8963 H       1  UNL1        0.0573
     56 H           3.8163    0.9152  -10.7250 H       1  UNL1        0.0573
     57 H           4.3647    0.2426  -12.9961 H       1  UNL1        0.0466
     58 H           5.3958    1.6794  -13.2192 H       1  UNL1        0.0466
     59 H           1.9361   -1.2222  -12.9961 H       1  UNL1        0.0637
     60 H           0.2515   -2.2306  -11.5101 H       1  UNL1        0.0621
     61 H          -1.4884   -3.3276   -4.1790 H       1  UNL1        0.0621
     62 H          -0.8363   -2.9652   -1.8324 H       1  UNL1        0.0637
@<TRIPOS>BOND
     1     1     2    1
     2     1    34    1
     3     1    35    1
     4     1    36    1
     5     2     3    1
     6     4     2    1
     7     3    37    1
     8     3    38    1
     9     3    39    1
    10     4     5    2
    11     4     6    2
    12     4     7    1
    13     7    33   ar
    14     7     8   ar
    15     8     9   ar
    16     8    40    1
    17     9    10   ar
    18     9    41    1
    19    10    11    1
    20    10    32   ar
    21    11    12    1
    22    11    42    1
    23    11    43    1
    24    12    13    1
    25    12    44    1
    26    12    45    1
    27    13    14    2
    28    13    15   am
    29    15    16    1
    30    15    46    1
    31    16    17    1
    32    16    47    1
    33    16    48    1
    34    17    31   ar
    35    17    18   ar
    36    18    19   ar
    37    18    49    1
    38    19    20   ar
    39    19    50    1
    40    20    21    1
    41    20    30   ar
    42    21    22    2
    43    21    23    2
    44    21    24    1
    45    24    29    1
    46    24    25    1
    47    25    26    1
    48    25    51    1
    49    25    52    1
    50    26    27    1
    51    26    53    1
    52    26    54    1
    53    27    28    1
    54    28    29    1
    55    28    55    1
    56    28    56    1
    57    29    57    1
    58    29    58    1
    59    30    31   ar
    60    30    59    1
    61    31    60    1
    62    32    33   ar
    63    32    61    1
    64    33    62    1
