@<TRIPOS>MOLECULE
ZINC000021740120
 58 61 0 0 0
SMALL
GASTEIGER

@<TRIPOS>ATOM
      1 C          -0.0187    1.5258    0.0104 C.3     1  UNL1       -0.0612
      2 C           0.0021   -0.0041    0.0020 C.3     1  UNL1       -0.0292
      3 H           0.5122   -0.3561   -0.8946 H       1  UNL1        0.0311
      4 C          -1.4334   -0.5345    0.0145 C.3     1  UNL1       -0.0454
      5 C          -1.4142   -2.0642   -0.0270 C.3     1  UNL1       -0.0292
      6 H          -2.4371   -2.4406   -0.0417 H       1  UNL1        0.0311
      7 C          -0.6799   -2.5317   -1.2853 C.3     1  UNL1       -0.0612
      8 C          -0.6916   -2.5957    1.2148 C.3     1  UNL1        0.0231
      9 N           0.6392   -1.9773    1.2884 N.3     1  UNL1       -0.1761
     10 S           1.9987   -2.9138    1.4182 S.O2    1  UNL1        0.0609
     11 O           2.9973   -2.0921    2.0072 O.2     1  UNL1       -0.1528
     12 O           1.5814   -4.1517    1.9775 O.2     1  UNL1       -0.1528
     13 C           2.5469   -3.2671   -0.2187 C.ar    1  UNL1        0.1055
     14 C           2.0771   -4.3910   -0.8748 C.ar    1  UNL1       -0.0346
     15 C           2.5026   -4.6736   -2.1563 C.ar    1  UNL1       -0.0478
     16 C           3.4088   -3.8226   -2.7911 C.ar    1  UNL1        0.0368
     17 C           3.8687   -4.1191   -4.1645 C.2     1  UNL1        0.2444
     18 O           3.4577   -5.1057   -4.7434 O.2     1  UNL1       -0.2702
     19 N           4.7438   -3.2954   -4.7747 N.am    1  UNL1       -0.3042
     20 C           5.1995   -3.5891   -6.1356 C.3     1  UNL1        0.0723
     21 C           6.1658   -2.5227   -6.5829 C.ar    1  UNL1        0.1550
     22 N           5.8590   -1.4096   -7.1977 N.ar    1  UNL1       -0.1321
     23 N           6.9214   -0.7238   -7.4357 N.ar    1  UNL1       -0.1294
     24 C           7.9785   -1.3744   -6.9778 C.ar    1  UNL1        0.1611
     25 C           9.3587   -1.0952   -6.9681 C.ar    1  UNL1       -0.0165
     26 C          10.2136   -1.9909   -6.4051 C.ar    1  UNL1       -0.0452
     27 C           9.7105   -3.1770   -5.8434 C.ar    1  UNL1        0.0714
     28 C          10.6563   -4.1702   -5.2188 C.3     1  UNL1        0.4188
     29 F          11.1685   -5.0137   -6.2105 F       1  UNL1       -0.1658
     30 F          11.7079   -3.4867   -4.5991 F       1  UNL1       -0.1658
     31 F           9.9703   -4.9323   -4.2670 F       1  UNL1       -0.1658
     32 C           8.3852   -3.4311   -5.8599 C.ar    1  UNL1        0.0246
     33 N           7.5161   -2.5392   -6.4159 N.ar    1  UNL1       -0.2846
     34 C           3.8785   -2.6903   -2.1237 C.ar    1  UNL1       -0.0478
     35 C           3.4409   -2.4164   -0.8443 C.ar    1  UNL1       -0.0346
     36 C           0.7415   -0.5122    1.2437 C.3     1  UNL1        0.0231
     37 H           1.0039    1.9031    0.0027 H       1  UNL1        0.0233
     38 H          -0.5459    1.8868   -0.8726 H       1  UNL1        0.0233
     39 H          -0.5289    1.8773    0.9072 H       1  UNL1        0.0233
     40 H          -1.9355   -0.2021    0.9231 H       1  UNL1        0.0271
     41 H          -1.9686   -0.1542   -0.8556 H       1  UNL1        0.0271
     42 H           0.3432   -2.1560   -1.2696 H       1  UNL1        0.0233
     43 H          -0.6665   -3.6212   -1.3144 H       1  UNL1        0.0233
     44 H          -1.1933   -2.1509   -2.1682 H       1  UNL1        0.0233
     45 H          -1.2630   -2.3406    2.1072 H       1  UNL1        0.0446
     46 H          -0.5879   -3.6783    1.1418 H       1  UNL1        0.0446
     47 H           1.3759   -5.0486   -0.3826 H       1  UNL1        0.0637
     48 H           2.1357   -5.5516   -2.6672 H       1  UNL1        0.0626
     49 H           5.0718   -2.5081   -4.3127 H       1  UNL1        0.1495
     50 H           5.6964   -4.5592   -6.1510 H       1  UNL1        0.0543
     51 H           4.3429   -3.6090   -6.8093 H       1  UNL1        0.0543
     52 H           9.7341   -0.1807   -7.4030 H       1  UNL1        0.0655
     53 H          11.2750   -1.7916   -6.3901 H       1  UNL1        0.0625
     54 H           8.0096   -4.3457   -5.4254 H       1  UNL1        0.0819
     55 H           4.5800   -2.0281   -2.6091 H       1  UNL1        0.0626
     56 H           3.8033   -1.5404   -0.3269 H       1  UNL1        0.0637
     57 H           1.7904   -0.2207    1.1903 H       1  UNL1        0.0446
     58 H           0.2870   -0.0867    2.1384 H       1  UNL1        0.0446
@<TRIPOS>BOND
     1     1     2    1
     2     1    37    1
     3     1    38    1
     4     1    39    1
     5     2     3    1
     6     2    36    1
     7     2     4    1
     8     4     5    1
     9     4    40    1
    10     4    41    1
    11     5     6    1
    12     5     7    1
    13     5     8    1
    14     7    42    1
    15     7    43    1
    16     7    44    1
    17     8     9    1
    18     8    45    1
    19     8    46    1
    20    10     9    1
    21     9    36    1
    22    10    11    2
    23    10    12    2
    24    10    13    1
    25    13    35   ar
    26    13    14   ar
    27    14    15   ar
    28    14    47    1
    29    15    16   ar
    30    15    48    1
    31    16    17    1
    32    16    34   ar
    33    17    18    2
    34    17    19   am
    35    19    20    1
    36    19    49    1
    37    20    21    1
    38    20    50    1
    39    20    51    1
    40    21    33   ar
    41    21    22   ar
    42    22    23   ar
    43    23    24   ar
    44    24    33   ar
    45    24    25   ar
    46    25    26   ar
    47    25    52    1
    48    26    27   ar
    49    26    53    1
    50    27    28    1
    51    27    32   ar
    52    28    29    1
    53    28    30    1
    54    28    31    1
    55    32    33   ar
    56    32    54    1
    57    34    35   ar
    58    34    55    1
    59    35    56    1
    60    36    57    1
    61    36    58    1
