@<TRIPOS>MOLECULE
ZINC000217632584
 44 46 0 0 0
SMALL
GASTEIGER

@<TRIPOS>ATOM
      1 C          -0.0176    1.4478    0.0100 C.3     1  UNL1        0.0820
      2 O           0.0021   -0.0041    0.0020 O.3     1  UNL1       -0.4645
      3 C           0.6005   -0.6018   -1.0464 C.2     1  UNL1        0.3389
      4 O           1.0924    0.0714   -1.9298 O.2     1  UNL1       -0.2450
      5 C           0.6585   -2.0760   -1.1219 C.ar    1  UNL1        0.0591
      6 C           0.0891   -2.8529   -0.1110 C.ar    1  UNL1       -0.0459
      7 C           0.1469   -4.2290   -0.1877 C.ar    1  UNL1       -0.0346
      8 C           0.7674   -4.8396   -1.2632 C.ar    1  UNL1        0.1056
      9 S           0.8361   -6.5980   -1.3534 S.O2    1  UNL1        0.0621
     10 O           1.9426   -6.9141   -2.1871 O.2     1  UNL1       -0.1528
     11 O           0.7063   -7.0735   -0.0207 O.2     1  UNL1       -0.1528
     12 N          -0.5181   -7.1006   -2.1632 N.3     1  UNL1       -0.1585
     13 C          -1.7716   -7.4117   -1.4795 C.3     1  UNL1        0.0311
     14 C          -2.5313   -8.5166   -2.2650 C.3     1  UNL1        0.0100
     15 S          -2.2139   -7.9487   -3.9888 S.3     1  UNL1       -0.1342
     16 C          -0.5508   -7.2613   -3.6247 C.3     1  UNL1        0.1023
     17 H           0.2250   -7.9581   -3.9420 H       1  UNL1        0.0644
     18 C          -0.3719   -5.9316   -4.3111 C.ar    1  UNL1       -0.0188
     19 C          -0.7536   -4.7669   -3.6719 C.ar    1  UNL1       -0.0557
     20 C          -0.5894   -3.5473   -4.3015 C.ar    1  UNL1       -0.0498
     21 C          -0.0431   -3.4923   -5.5701 C.ar    1  UNL1        0.0548
     22 C           0.1354   -2.1627   -6.2567 C.3     1  UNL1        0.4174
     23 F           1.3962   -1.6426   -5.9453 F       1  UNL1       -0.1659
     24 F           0.0309   -2.3351   -7.6411 F       1  UNL1       -0.1659
     25 F          -0.8554   -1.2762   -5.8211 F       1  UNL1       -0.1659
     26 C           0.3399   -4.6569   -6.2088 C.ar    1  UNL1       -0.0498
     27 C           0.1793   -5.8763   -5.5776 C.ar    1  UNL1       -0.0557
     28 C           1.3337   -4.0758   -2.2684 C.ar    1  UNL1       -0.0346
     29 C           1.2780   -2.6989   -2.2072 C.ar    1  UNL1       -0.0459
     30 H           1.0050    1.8251    0.0023 H       1  UNL1        0.0661
     31 H          -0.5448    1.8089   -0.8731 H       1  UNL1        0.0661
     32 H          -0.5278    1.7993    0.9068 H       1  UNL1        0.0661
     33 H          -0.3952   -2.3775    0.7291 H       1  UNL1        0.0626
     34 H          -0.2928   -4.8311    0.5936 H       1  UNL1        0.0637
     35 H          -1.5573   -7.7651   -0.4709 H       1  UNL1        0.0452
     36 H          -2.3885   -6.5146   -1.4259 H       1  UNL1        0.0452
     37 H          -2.0979   -9.5004   -2.0852 H       1  UNL1        0.0390
     38 H          -3.5965   -8.5066   -2.0338 H       1  UNL1        0.0390
     39 H          -1.1804   -4.8098   -2.6807 H       1  UNL1        0.0621
     40 H          -0.8883   -2.6373   -3.8024 H       1  UNL1        0.0623
     41 H           0.7670   -4.6140   -7.1998 H       1  UNL1        0.0623
     42 H           0.4785   -6.7861   -6.0765 H       1  UNL1        0.0621
     43 H           1.8165   -4.5589   -3.1051 H       1  UNL1        0.0637
     44 H           1.7205   -2.1038   -2.9924 H       1  UNL1        0.0626
@<TRIPOS>BOND
     1     1     2    1
     2     1    30    1
     3     1    31    1
     4     1    32    1
     5     2     3    1
     6     3     4    2
     7     3     5    1
     8     5    29   ar
     9     5     6   ar
    10     6     7   ar
    11     6    33    1
    12     7     8   ar
    13     7    34    1
    14     8     9    1
    15     8    28   ar
    16     9    10    2
    17     9    11    2
    18     9    12    1
    19    12    16    1
    20    12    13    1
    21    13    14    1
    22    13    35    1
    23    13    36    1
    24    14    15    1
    25    14    37    1
    26    14    38    1
    27    15    16    1
    28    16    17    1
    29    16    18    1
    30    18    27   ar
    31    18    19   ar
    32    19    20   ar
    33    19    39    1
    34    20    21   ar
    35    20    40    1
    36    21    22    1
    37    21    26   ar
    38    22    23    1
    39    22    24    1
    40    22    25    1
    41    26    27   ar
    42    26    41    1
    43    27    42    1
    44    28    29   ar
    45    28    43    1
    46    29    44    1
