@<TRIPOS>MOLECULE
ZINC000409127209
 53 55 0 0 0
SMALL
GASTEIGER

@<TRIPOS>ATOM
      1 C          -1.8549    2.0231    0.2233 C.3     1  UNL1        0.0818
      2 O          -1.5624    0.6044    0.1230 O.3     1  UNL1       -0.4656
      3 C          -2.6019   -0.2400    0.2136 C.2     1  UNL1        0.3449
      4 O          -3.7192    0.1919    0.3714 O.2     1  UNL1       -0.2470
      5 C          -2.3753   -1.7269    0.1183 C.3     1  UNL1        0.1858
      6 O          -3.6254   -2.4081    0.2423 O.3     1  UNL1       -0.4808
      7 C          -3.5975   -3.7653    0.1776 C.ar    1  UNL1        0.1214
      8 C          -2.3911   -4.4280    0.0041 C.ar    1  UNL1       -0.0181
      9 C          -2.3654   -5.8076   -0.0610 C.ar    1  UNL1       -0.0319
     10 C          -3.5407   -6.5280    0.0462 C.ar    1  UNL1        0.1057
     11 S          -3.5045   -8.2876   -0.0377 S.O2    1  UNL1        0.0614
     12 O          -4.7383   -8.6870   -0.6188 O.2     1  UNL1       -0.1528
     13 O          -2.2395   -8.6374   -0.5824 O.2     1  UNL1       -0.1528
     14 N          -3.5160   -8.8530    1.5187 N.3     1  UNL1       -0.1680
     15 C          -4.7848   -8.9944    2.2373 C.3     1  UNL1        0.0459
     16 C          -5.2844  -10.4096    2.1009 C.ar    1  UNL1       -0.0317
     17 C          -6.1049  -10.7540    1.0431 C.ar    1  UNL1       -0.0573
     18 C          -6.5631  -12.0522    0.9180 C.ar    1  UNL1       -0.0615
     19 C          -6.2004  -13.0061    1.8504 C.ar    1  UNL1       -0.0617
     20 C          -5.3791  -12.6619    2.9077 C.ar    1  UNL1       -0.0615
     21 C          -4.9174  -11.3647    3.0305 C.ar    1  UNL1       -0.0573
     22 C          -2.2574   -9.2117    2.1771 C.3     1  UNL1        0.0459
     23 C          -1.7874   -8.0579    3.0250 C.ar    1  UNL1       -0.0317
     24 C          -0.9226   -7.1184    2.4956 C.ar    1  UNL1       -0.0573
     25 C          -0.4915   -6.0600    3.2734 C.ar    1  UNL1       -0.0615
     26 C          -0.9255   -5.9410    4.5804 C.ar    1  UNL1       -0.0617
     27 C          -1.7909   -6.8801    5.1095 C.ar    1  UNL1       -0.0615
     28 C          -2.2255   -7.9361    4.3304 C.ar    1  UNL1       -0.0573
     29 C          -4.7443   -5.8699    0.2196 C.ar    1  UNL1       -0.0319
     30 C          -4.7747   -4.4906    0.2906 C.ar    1  UNL1       -0.0181
     31 H          -0.9295    2.5921    0.1344 H       1  UNL1        0.0661
     32 H          -2.5367    2.3110   -0.5769 H       1  UNL1        0.0661
     33 H          -2.3182    2.2312    1.1878 H       1  UNL1        0.0661
     34 H          -1.9259   -1.9649   -0.8458 H       1  UNL1        0.0815
     35 H          -1.7074   -2.0446    0.9189 H       1  UNL1        0.0815
     36 H          -1.4729   -3.8657   -0.0804 H       1  UNL1        0.0655
     37 H          -1.4265   -6.3240   -0.1960 H       1  UNL1        0.0638
     38 H          -4.6331   -8.7627    3.2916 H       1  UNL1        0.0493
     39 H          -5.5193   -8.3077    1.8164 H       1  UNL1        0.0493
     40 H          -6.3883  -10.0088    0.3146 H       1  UNL1        0.0621
     41 H          -7.2048  -12.3211    0.0919 H       1  UNL1        0.0618
     42 H          -6.5590  -14.0201    1.7530 H       1  UNL1        0.0618
     43 H          -5.0961  -13.4071    3.6364 H       1  UNL1        0.0618
     44 H          -4.2758  -11.0958    3.8565 H       1  UNL1        0.0621
     45 H          -2.4140  -10.0864    2.8083 H       1  UNL1        0.0493
     46 H          -1.5043   -9.4384    1.4223 H       1  UNL1        0.0493
     47 H          -0.5836   -7.2113    1.4744 H       1  UNL1        0.0621
     48 H           0.1847   -5.3264    2.8600 H       1  UNL1        0.0618
     49 H          -0.5881   -5.1146    5.1883 H       1  UNL1        0.0618
     50 H          -2.1297   -6.7873    6.1308 H       1  UNL1        0.0618
     51 H          -2.9017   -8.6697    4.7438 H       1  UNL1        0.0621
     52 H          -5.6609   -6.4348    0.3034 H       1  UNL1        0.0638
     53 H          -5.7150   -3.9770    0.4260 H       1  UNL1        0.0655
@<TRIPOS>BOND
     1     1     2    1
     2     1    31    1
     3     1    32    1
     4     1    33    1
     5     2     3    1
     6     3     4    2
     7     3     5    1
     8     5     6    1
     9     5    34    1
    10     5    35    1
    11     6     7    1
    12     7    30   ar
    13     7     8   ar
    14     8     9   ar
    15     8    36    1
    16     9    10   ar
    17     9    37    1
    18    10    11    1
    19    10    29   ar
    20    11    12    2
    21    11    13    2
    22    11    14    1
    23    14    15    1
    24    14    22    1
    25    15    16    1
    26    15    38    1
    27    15    39    1
    28    16    21   ar
    29    16    17   ar
    30    17    18   ar
    31    17    40    1
    32    18    19   ar
    33    18    41    1
    34    19    20   ar
    35    19    42    1
    36    20    21   ar
    37    20    43    1
    38    21    44    1
    39    22    23    1
    40    22    45    1
    41    22    46    1
    42    23    28   ar
    43    23    24   ar
    44    24    25   ar
    45    24    47    1
    46    25    26   ar
    47    25    48    1
    48    26    27   ar
    49    26    49    1
    50    27    28   ar
    51    27    50    1
    52    28    51    1
    53    29    30   ar
    54    29    52    1
    55    30    53    1
