@<TRIPOS>MOLECULE
ZINC000028208310
 47 48 0 0 0
SMALL
GASTEIGER

@<TRIPOS>ATOM
      1 C          -0.0178    1.4608    0.0101 C.3     1  UNL1        0.0086
      2 N           0.0021   -0.0041    0.0020 N.3     1  UNL1       -0.1827
      3 C           0.0241   -0.7433    1.2666 C.3     1  UNL1        0.0086
      4 S          -0.0004   -0.8243   -1.4366 S.O2    1  UNL1        0.0604
      5 O          -0.5247   -2.1160   -1.1611 O.2     1  UNL1       -0.1529
      6 O          -0.5660    0.0551   -2.3989 O.2     1  UNL1       -0.1529
      7 C           1.6816   -1.0597   -1.9056 C.ar    1  UNL1        0.1055
      8 C           2.3234   -0.1095   -2.6777 C.ar    1  UNL1       -0.0351
      9 C           3.6430   -0.2942   -3.0457 C.ar    1  UNL1       -0.0567
     10 C           4.3210   -1.4289   -2.6412 C.ar    1  UNL1       -0.0468
     11 C           5.7594   -1.6304   -3.0428 C.3     1  UNL1       -0.0194
     12 C           6.6758   -1.0157   -1.9829 C.3     1  UNL1        0.0279
     13 C           8.1142   -1.2173   -2.3845 C.2     1  UNL1        0.2134
     14 O           8.3803   -1.7957   -3.4168 O.2     1  UNL1       -0.2758
     15 N           9.1050   -0.7549   -1.5965 N.am    1  UNL1       -0.3128
     16 C          10.5034   -0.9508   -1.9869 C.3     1  UNL1        0.0379
     17 C          11.4197   -0.3361   -0.9270 C.3     1  UNL1        0.0742
     18 H          11.1493    0.7073   -0.7648 H       1  UNL1        0.0611
     19 C          12.8902   -0.4304   -1.3876 C.3     1  UNL1       -0.0231
     20 C          13.6282   -0.7756   -0.0654 C.3     1  UNL1       -0.0271
     21 C          12.5672   -1.6551    0.6427 C.3     1  UNL1        0.0482
     22 O          11.3010   -1.0654    0.3001 O.3     1  UNL1       -0.3750
     23 C           3.6797   -2.3784   -1.8680 C.ar    1  UNL1       -0.0567
     24 C           2.3612   -2.1919   -1.4968 C.ar    1  UNL1       -0.0351
     25 H           1.0048    1.8381    0.0023 H       1  UNL1        0.0408
     26 H          -0.5450    1.8219   -0.8730 H       1  UNL1        0.0408
     27 H          -0.5280    1.8123    0.9069 H       1  UNL1        0.0408
     28 H          -0.9979   -0.9406    1.5900 H       1  UNL1        0.0408
     29 H           0.5496   -1.6879    1.1262 H       1  UNL1        0.0408
     30 H           0.5371   -0.1514    2.0246 H       1  UNL1        0.0408
     31 H           1.7936    0.7771   -2.9938 H       1  UNL1        0.0637
     32 H           4.1441    0.4479   -3.6495 H       1  UNL1        0.0621
     33 H           5.9668   -2.6971   -3.1279 H       1  UNL1        0.0318
     34 H           5.9396   -1.1475   -4.0032 H       1  UNL1        0.0318
     35 H           6.4684    0.0510   -1.8978 H       1  UNL1        0.0361
     36 H           6.4956   -1.4987   -1.0225 H       1  UNL1        0.0361
     37 H           8.8922   -0.2923   -0.7709 H       1  UNL1        0.1488
     38 H          10.7108   -2.0175   -2.0720 H       1  UNL1        0.0487
     39 H          10.6836   -0.4679   -2.9473 H       1  UNL1        0.0487
     40 H          13.0165   -1.2264   -2.1215 H       1  UNL1        0.0291
     41 H          13.2339    0.5241   -1.7860 H       1  UNL1        0.0291
     42 H          14.5400   -1.3402   -0.2603 H       1  UNL1        0.0288
     43 H          13.8414    0.1241    0.5118 H       1  UNL1        0.0288
     44 H          12.6196   -2.6802    0.2758 H       1  UNL1        0.0560
     45 H          12.7152   -1.6309    1.7223 H       1  UNL1        0.0560
     46 H           4.2095   -3.2648   -1.5516 H       1  UNL1        0.0621
     47 H           1.8602   -2.9338   -0.8927 H       1  UNL1        0.0637
@<TRIPOS>BOND
     1     1     2    1
     2     1    25    1
     3     1    26    1
     4     1    27    1
     5     2     3    1
     6     4     2    1
     7     3    28    1
     8     3    29    1
     9     3    30    1
    10     4     5    2
    11     4     6    2
    12     4     7    1
    13     7    24   ar
    14     7     8   ar
    15     8     9   ar
    16     8    31    1
    17     9    10   ar
    18     9    32    1
    19    10    11    1
    20    10    23   ar
    21    11    12    1
    22    11    33    1
    23    11    34    1
    24    12    13    1
    25    12    35    1
    26    12    36    1
    27    13    14    2
    28    13    15   am
    29    15    16    1
    30    15    37    1
    31    16    17    1
    32    16    38    1
    33    16    39    1
    34    17    18    1
    35    17    22    1
    36    17    19    1
    37    19    20    1
    38    19    40    1
    39    19    41    1
    40    20    21    1
    41    20    42    1
    42    20    43    1
    43    21    22    1
    44    21    44    1
    45    21    45    1
    46    23    24   ar
    47    23    46    1
    48    24    47    1
