@<TRIPOS>MOLECULE
ZINC000012648714
 57 59 0 0 0
SMALL
GASTEIGER

@<TRIPOS>ATOM
      1 C          -0.0187    1.5258    0.0104 C.3     1  UNL1       -0.0612
      2 C           0.0021   -0.0041    0.0020 C.3     1  UNL1       -0.0292
      3 H           0.5122   -0.3561   -0.8946 H       1  UNL1        0.0311
      4 C          -1.4334   -0.5345    0.0145 C.3     1  UNL1       -0.0454
      5 C          -1.4142   -2.0642   -0.0270 C.3     1  UNL1       -0.0292
      6 H          -2.4371   -2.4406   -0.0417 H       1  UNL1        0.0311
      7 C          -0.6799   -2.5317   -1.2853 C.3     1  UNL1       -0.0612
      8 C          -0.6916   -2.5957    1.2148 C.3     1  UNL1        0.0231
      9 N           0.6392   -1.9773    1.2884 N.3     1  UNL1       -0.1761
     10 S           1.9987   -2.9138    1.4182 S.O2    1  UNL1        0.0609
     11 O           2.9973   -2.0921    2.0072 O.2     1  UNL1       -0.1528
     12 O           1.5814   -4.1517    1.9775 O.2     1  UNL1       -0.1528
     13 C           2.5469   -3.2671   -0.2187 C.ar    1  UNL1        0.1055
     14 C           2.0770   -4.3911   -0.8748 C.ar    1  UNL1       -0.0346
     15 C           2.5020   -4.6736   -2.1563 C.ar    1  UNL1       -0.0459
     16 C           3.4085   -3.8224   -2.7914 C.ar    1  UNL1        0.0591
     17 C           3.8677   -4.1184   -4.1639 C.2     1  UNL1        0.3396
     18 O           3.4566   -5.1041   -4.7426 O.2     1  UNL1       -0.2449
     19 O           4.7423   -3.2951   -4.7738 O.3     1  UNL1       -0.4531
     20 C           5.1497   -3.6480   -6.1220 C.3     1  UNL1        0.1550
     21 C           6.1229   -2.6196   -6.6381 C.2     1  UNL1        0.2003
     22 O           6.4416   -1.6818   -5.9387 O.2     1  UNL1       -0.2884
     23 C           6.6864   -2.7535   -7.9910 C.ar    1  UNL1        0.0214
     24 C           6.3169   -3.8304   -8.8028 C.ar    1  UNL1       -0.0511
     25 C           6.8493   -3.9489  -10.0694 C.ar    1  UNL1       -0.0606
     26 C           7.7474   -3.0058  -10.5374 C.ar    1  UNL1       -0.0501
     27 C           8.1181   -1.9369   -9.7399 C.ar    1  UNL1        0.0555
     28 C           9.0969   -0.9155  -10.2594 C.3     1  UNL1        0.4174
     29 F           9.4851   -1.2603  -11.5585 F       1  UNL1       -0.1659
     30 F           8.4917    0.3457  -10.2727 F       1  UNL1       -0.1659
     31 F          10.2225   -0.8839   -9.4292 F       1  UNL1       -0.1659
     32 C           7.5899   -1.8010   -8.4737 C.ar    1  UNL1       -0.0395
     33 C           3.8786   -2.6900   -2.1235 C.ar    1  UNL1       -0.0459
     34 C           3.4410   -2.4163   -0.8442 C.ar    1  UNL1       -0.0346
     35 C           0.7415   -0.5122    1.2437 C.3     1  UNL1        0.0231
     36 H           1.0039    1.9031    0.0027 H       1  UNL1        0.0233
     37 H          -0.5459    1.8868   -0.8726 H       1  UNL1        0.0233
     38 H          -0.5289    1.8773    0.9072 H       1  UNL1        0.0233
     39 H          -1.9355   -0.2021    0.9231 H       1  UNL1        0.0271
     40 H          -1.9686   -0.1542   -0.8556 H       1  UNL1        0.0271
     41 H           0.3432   -2.1560   -1.2696 H       1  UNL1        0.0233
     42 H          -0.6665   -3.6212   -1.3144 H       1  UNL1        0.0233
     43 H          -1.1933   -2.1509   -2.1682 H       1  UNL1        0.0233
     44 H          -1.2630   -2.3406    2.1072 H       1  UNL1        0.0446
     45 H          -0.5879   -3.6783    1.1418 H       1  UNL1        0.0446
     46 H           1.3761   -5.0488   -0.3823 H       1  UNL1        0.0637
     47 H           2.1347   -5.5514   -2.6672 H       1  UNL1        0.0626
     48 H           5.6274   -4.6277   -6.1125 H       1  UNL1        0.0782
     49 H           4.2740   -3.6771   -6.7703 H       1  UNL1        0.0782
     50 H           5.6166   -4.5676   -8.4387 H       1  UNL1        0.0625
     51 H           6.5650   -4.7801  -10.6976 H       1  UNL1        0.0618
     52 H           8.1615   -3.1045  -11.5299 H       1  UNL1        0.0623
     53 H           7.8798   -0.9663   -7.8527 H       1  UNL1        0.0630
     54 H           4.5799   -2.0274   -2.6089 H       1  UNL1        0.0626
     55 H           3.8038   -1.5407   -0.3264 H       1  UNL1        0.0637
     56 H           1.7904   -0.2207    1.1903 H       1  UNL1        0.0446
     57 H           0.2870   -0.0867    2.1384 H       1  UNL1        0.0446
@<TRIPOS>BOND
     1     1     2    1
     2     1    36    1
     3     1    37    1
     4     1    38    1
     5     2     3    1
     6     2    35    1
     7     2     4    1
     8     4     5    1
     9     4    39    1
    10     4    40    1
    11     5     6    1
    12     5     7    1
    13     5     8    1
    14     7    41    1
    15     7    42    1
    16     7    43    1
    17     8     9    1
    18     8    44    1
    19     8    45    1
    20    10     9    1
    21     9    35    1
    22    10    11    2
    23    10    12    2
    24    10    13    1
    25    13    34   ar
    26    13    14   ar
    27    14    15   ar
    28    14    46    1
    29    15    16   ar
    30    15    47    1
    31    16    17    1
    32    16    33   ar
    33    17    18    2
    34    17    19    1
    35    19    20    1
    36    20    21    1
    37    20    48    1
    38    20    49    1
    39    21    22    2
    40    21    23    1
    41    23    32   ar
    42    23    24   ar
    43    24    25   ar
    44    24    50    1
    45    25    26   ar
    46    25    51    1
    47    26    27   ar
    48    26    52    1
    49    27    28    1
    50    27    32   ar
    51    28    29    1
    52    28    30    1
    53    28    31    1
    54    32    53    1
    55    33    34   ar
    56    33    54    1
    57    34    55    1
    58    35    56    1
    59    35    57    1
