@<TRIPOS>MOLECULE
ZINC000010912058
 49 50 0 0 0
SMALL
GASTEIGER

@<TRIPOS>ATOM
      1 C           0.0687    1.5131   -0.3701 C.3     1  UNL1       -0.0507
      2 C           0.1368   -0.0138   -0.3018 C.3     1  UNL1        0.0187
      3 N           0.8117   -0.4177    0.9341 N.3     1  UNL1       -0.1669
      4 C           0.0498   -0.5361    2.1798 C.3     1  UNL1        0.0187
      5 C          -0.5960   -1.9212    2.2529 C.3     1  UNL1       -0.0507
      6 S           2.4359   -0.7405    0.9232 S.O2    1  UNL1        0.0996
      7 O           2.6569   -1.7214    1.9273 O.2     1  UNL1       -0.1409
      8 O           2.7989   -0.9263   -0.4380 O.2     1  UNL1       -0.1409
      9 N           3.2118    0.6315    1.4310 N.3     1  UNL1       -0.1639
     10 C           3.5838    1.6795    0.4702 C.3     1  UNL1        0.0360
     11 C           2.9801    3.0096    0.9377 C.3     1  UNL1        0.0350
     12 N           3.3086    3.2013    2.3573 N.3     1  UNL1       -0.1740
     13 S           4.0835    4.5738    2.8652 S.O2    1  UNL1        0.0609
     14 O           4.7310    4.2407    4.0854 O.2     1  UNL1       -0.1528
     15 O           4.7736    5.0869    1.7340 O.2     1  UNL1       -0.1528
     16 C           2.8404    5.7558    3.2681 C.ar    1  UNL1        0.1055
     17 C           2.3692    6.6210    2.2984 C.ar    1  UNL1       -0.0348
     18 C           1.3939    7.5483    2.6145 C.ar    1  UNL1       -0.0483
     19 C           0.8897    7.6102    3.9001 C.ar    1  UNL1        0.0549
     20 C          -0.1731    8.6214    4.2448 C.3     1  UNL1        0.4174
     21 F          -1.4369    8.0625    4.0267 F       1  UNL1       -0.1659
     22 F          -0.0506    8.9867    5.5897 F       1  UNL1       -0.1659
     23 F          -0.0185    9.7539    3.4380 F       1  UNL1       -0.1659
     24 C           1.3600    6.7440    4.8694 C.ar    1  UNL1       -0.0483
     25 C           2.3324    5.8142    4.5524 C.ar    1  UNL1       -0.0348
     26 C           2.9366    2.1532    3.3181 C.3     1  UNL1        0.0350
     27 C           3.5353    0.8256    2.8514 C.3     1  UNL1        0.0360
     28 H           1.0767    1.9181   -0.4600 H       1  UNL1        0.0243
     29 H          -0.5215    1.8121   -1.2363 H       1  UNL1        0.0243
     30 H          -0.3975    1.8970    0.5373 H       1  UNL1        0.0243
     31 H          -0.8732   -0.4235   -0.3149 H       1  UNL1        0.0441
     32 H           0.6932   -0.3914   -1.1597 H       1  UNL1        0.0441
     33 H           0.7193   -0.4020    3.0294 H       1  UNL1        0.0441
     34 H          -0.7266    0.2286    2.2048 H       1  UNL1        0.0441
     35 H          -1.2656   -2.0552    1.4033 H       1  UNL1        0.0243
     36 H           0.1804   -2.6858    2.2279 H       1  UNL1        0.0243
     37 H          -1.1630   -2.0092    3.1797 H       1  UNL1        0.0243
     38 H           4.6694    1.7662    0.4255 H       1  UNL1        0.0457
     39 H           3.1936    1.4271   -0.5158 H       1  UNL1        0.0457
     40 H           3.3990    3.8276    0.3516 H       1  UNL1        0.0457
     41 H           1.8975    2.9839    0.8129 H       1  UNL1        0.0457
     42 H           2.7631    6.5727    1.2940 H       1  UNL1        0.0637
     43 H           1.0263    8.2248    1.8571 H       1  UNL1        0.0624
     44 H           0.9657    6.7921    5.8737 H       1  UNL1        0.0624
     45 H           2.6999    5.1375    5.3097 H       1  UNL1        0.0637
     46 H           3.3268    2.4056    4.3040 H       1  UNL1        0.0457
     47 H           1.8509    2.0666    3.3628 H       1  UNL1        0.0457
     48 H           3.1156    0.0086    3.4382 H       1  UNL1        0.0457
     49 H           4.6181    0.8492    2.9746 H       1  UNL1        0.0457
@<TRIPOS>BOND
     1     1     2    1
     2     1    28    1
     3     1    29    1
     4     1    30    1
     5     2     3    1
     6     2    31    1
     7     2    32    1
     8     3     4    1
     9     6     3    1
    10     4     5    1
    11     4    33    1
    12     4    34    1
    13     5    35    1
    14     5    36    1
    15     5    37    1
    16     6     7    2
    17     6     8    2
    18     6     9    1
    19     9    27    1
    20     9    10    1
    21    10    11    1
    22    10    38    1
    23    10    39    1
    24    11    12    1
    25    11    40    1
    26    11    41    1
    27    13    12    1
    28    12    26    1
    29    13    14    2
    30    13    15    2
    31    13    16    1
    32    16    25   ar
    33    16    17   ar
    34    17    18   ar
    35    17    42    1
    36    18    19   ar
    37    18    43    1
    38    19    20    1
    39    19    24   ar
    40    20    21    1
    41    20    22    1
    42    20    23    1
    43    24    25   ar
    44    24    44    1
    45    25    45    1
    46    26    27    1
    47    26    46    1
    48    26    47    1
    49    27    48    1
    50    27    49    1
