@<TRIPOS>MOLECULE
ZINC000012738354
 48 50 0 0 0
SMALL
GASTEIGER

@<TRIPOS>ATOM
      1 C          -0.0173    1.4248    0.0099 C.3     1  UNL1        0.0790
      2 O           0.0021   -0.0041    0.0020 O.3     1  UNL1       -0.4915
      3 C           0.6062   -0.6075   -1.0564 C.ar    1  UNL1        0.1615
      4 C           1.1727    0.1587   -2.0618 C.ar    1  UNL1       -0.0160
      5 C           1.7870   -0.4565   -3.1372 C.ar    1  UNL1       -0.0533
      6 C           1.8372   -1.8356   -3.2121 C.ar    1  UNL1       -0.0249
      7 C           2.5075   -2.5009   -4.3865 C.3     1  UNL1        0.0569
      8 H           2.7597   -3.5309   -4.1345 H       1  UNL1        0.0529
      9 C           1.5683   -2.4749   -5.6108 C.3     1  UNL1       -0.0304
     10 C           2.5410   -2.2067   -6.7894 C.3     1  UNL1       -0.0368
     11 C           3.5730   -1.2574   -6.1310 C.3     1  UNL1        0.0212
     12 N           3.7256   -1.7627   -4.7511 N.3     1  UNL1       -0.1692
     13 S           5.0461   -1.5313   -3.7790 S.O2    1  UNL1        0.0614
     14 O           5.0317   -2.5845   -2.8251 O.2     1  UNL1       -0.1528
     15 O           6.1441   -1.2830   -4.6461 O.2     1  UNL1       -0.1528
     16 C           4.7763   -0.0409   -2.8786 C.ar    1  UNL1        0.1055
     17 C           5.1982    1.1677   -3.4002 C.ar    1  UNL1       -0.0348
     18 C           4.9865    2.3370   -2.6939 C.ar    1  UNL1       -0.0483
     19 C           4.3525    2.2976   -1.4661 C.ar    1  UNL1        0.0549
     20 C           4.1221    3.5723   -0.6958 C.3     1  UNL1        0.4174
     21 F           2.8846    4.1170   -1.0549 F       1  UNL1       -0.1659
     22 F           4.1298    3.2962    0.6756 F       1  UNL1       -0.1659
     23 F           5.1381    4.4869   -0.9931 F       1  UNL1       -0.1659
     24 C           3.9293    1.0891   -0.9451 C.ar    1  UNL1       -0.0483
     25 C           4.1376   -0.0797   -1.6533 C.ar    1  UNL1       -0.0348
     26 C           1.2740   -2.6064   -2.2116 C.ar    1  UNL1       -0.0116
     27 C           0.6617   -1.9965   -1.1290 C.ar    1  UNL1        0.1618
     28 O           0.1074   -2.7530   -0.1443 O.3     1  UNL1       -0.4914
     29 C           0.1928   -4.1720   -0.2904 C.3     1  UNL1        0.0790
     30 H           1.0053    1.8021    0.0021 H       1  UNL1        0.0660
     31 H          -0.5445    1.7859   -0.8732 H       1  UNL1        0.0660
     32 H          -0.5275    1.7763    0.9067 H       1  UNL1        0.0660
     33 H           1.1343    1.2366   -2.0060 H       1  UNL1        0.0655
     34 H           2.2283    0.1421   -3.9204 H       1  UNL1        0.0622
     35 H           1.0688   -3.4358   -5.7340 H       1  UNL1        0.0284
     36 H           0.8398   -1.6691   -5.5209 H       1  UNL1        0.0284
     37 H           3.0158   -3.1298   -7.1219 H       1  UNL1        0.0279
     38 H           2.0279   -1.7137   -7.6151 H       1  UNL1        0.0279
     39 H           4.5252   -1.3072   -6.6592 H       1  UNL1        0.0444
     40 H           3.1961   -0.2346   -6.1223 H       1  UNL1        0.0444
     41 H           5.6935    1.1985   -4.3594 H       1  UNL1        0.0637
     42 H           5.3167    3.2812   -3.1010 H       1  UNL1        0.0624
     43 H           3.4336    1.0584    0.0139 H       1  UNL1        0.0624
     44 H           3.8070   -1.0238   -1.2462 H       1  UNL1        0.0637
     45 H           1.3146   -3.6839   -2.2726 H       1  UNL1        0.0658
     46 H          -0.3098   -4.4735   -1.2094 H       1  UNL1        0.0660
     47 H           1.2403   -4.4703   -0.3345 H       1  UNL1        0.0660
     48 H          -0.2869   -4.6545    0.5611 H       1  UNL1        0.0660
@<TRIPOS>BOND
     1     1     2    1
     2     1    30    1
     3     1    31    1
     4     1    32    1
     5     2     3    1
     6     3    27   ar
     7     3     4   ar
     8     4     5   ar
     9     4    33    1
    10     5     6   ar
    11     5    34    1
    12     6     7    1
    13     6    26   ar
    14     7     8    1
    15     7    12    1
    16     7     9    1
    17     9    10    1
    18     9    35    1
    19     9    36    1
    20    10    11    1
    21    10    37    1
    22    10    38    1
    23    11    12    1
    24    11    39    1
    25    11    40    1
    26    13    12    1
    27    13    14    2
    28    13    15    2
    29    13    16    1
    30    16    25   ar
    31    16    17   ar
    32    17    18   ar
    33    17    41    1
    34    18    19   ar
    35    18    42    1
    36    19    20    1
    37    19    24   ar
    38    20    21    1
    39    20    22    1
    40    20    23    1
    41    24    25   ar
    42    24    43    1
    43    25    44    1
    44    26    27   ar
    45    26    45    1
    46    27    28    1
    47    28    29    1
    48    29    46    1
    49    29    47    1
    50    29    48    1
