@<TRIPOS>MOLECULE
ZINC000012850918
 57 60 0 0 0
SMALL
GASTEIGER

@<TRIPOS>ATOM
      1 C           0.5125    1.2523   -0.0588 C.3     1  UNL1       -0.0171
      2 C           0.5014   -0.2502    0.0574 C.ar    1  UNL1        0.1071
      3 N           0.6667   -1.1082   -0.9076 N.ar    1  UNL1       -0.0813
      4 O           0.6066   -2.2471   -0.5058 O.2     1  UNL1       -0.3576
      5 C           0.3873   -2.2925    0.8157 C.ar    1  UNL1        0.1607
      6 C           0.2536   -3.5294    1.6662 C.3     1  UNL1       -0.0017
      7 C           0.3156   -1.0071    1.2369 C.ar    1  UNL1        0.1696
      8 S           0.0431   -0.4155    2.8741 S.O2    1  UNL1        0.0666
      9 O          -0.4889    0.8957    2.7435 O.2     1  UNL1       -0.1527
     10 O          -0.6232   -1.4586    3.5720 O.2     1  UNL1       -0.1527
     11 N           1.5277   -0.2487    3.5885 N.3     1  UNL1       -0.1646
     12 C           2.2365   -1.2927    4.3509 C.3     1  UNL1        0.0214
     13 C           3.7331   -0.9036    4.2592 C.3     1  UNL1       -0.0366
     14 C           3.6577    0.6443    4.3342 C.3     1  UNL1       -0.0260
     15 C           2.3601    0.9629    3.5622 C.3     1  UNL1        0.1080
     16 H           2.5978    1.2330    2.5333 H       1  UNL1        0.0576
     17 C           1.6294    2.0969    4.2339 C.2     1  UNL1        0.2346
     18 O           0.5149    1.9211    4.6788 O.2     1  UNL1       -0.2738
     19 N           2.2144    3.3064    4.3401 N.am    1  UNL1       -0.2972
     20 C           3.5619    3.5356    3.8002 C.3     1  UNL1        0.0305
     21 C           3.5054    4.7208    2.8284 C.3     1  UNL1        0.0293
     22 N           2.8069    5.8343    3.4858 N.pl3   1  UNL1       -0.3122
     23 C           3.4099    7.0820    3.5946 C.ar    1  UNL1        0.1213
     24 C           4.5782    7.3470    2.8877 C.ar    1  UNL1       -0.0212
     25 C           5.1674    8.5931    3.0048 C.ar    1  UNL1       -0.0454
     26 C           4.5661    9.5357    3.8280 C.ar    1  UNL1        0.0730
     27 C           5.1726   10.9063    3.9854 C.3     1  UNL1        0.4188
     28 F           4.6445   11.7642    3.0146 F       1  UNL1       -0.1658
     29 F           4.8759   11.4041    5.2587 F       1  UNL1       -0.1658
     30 F           6.5603   10.8230    3.8289 F       1  UNL1       -0.1658
     31 C           3.4067    9.2047    4.5006 C.ar    1  UNL1        0.0413
     32 N           2.8639    8.0097    4.3660 N.ar    1  UNL1       -0.2398
     33 C           1.4594    5.6051    4.0258 C.3     1  UNL1        0.0293
     34 C           1.5137    4.4214    4.9926 C.3     1  UNL1        0.0305
     35 H           1.5298    1.6197    0.0763 H       1  UNL1        0.0294
     36 H           0.1490    1.5432   -1.0444 H       1  UNL1        0.0294
     37 H          -0.1334    1.6807    0.7077 H       1  UNL1        0.0294
     38 H           0.3627   -4.4146    1.0397 H       1  UNL1        0.0309
     39 H           1.0287   -3.5289    2.4326 H       1  UNL1        0.0309
     40 H          -0.7272   -3.5393    2.1415 H       1  UNL1        0.0309
     41 H           1.9076   -1.2928    5.3901 H       1  UNL1        0.0444
     42 H           2.0705   -2.2708    3.8995 H       1  UNL1        0.0444
     43 H           4.2944   -1.3087    5.1012 H       1  UNL1        0.0279
     44 H           4.1639   -1.2283    3.3120 H       1  UNL1        0.0279
     45 H           3.5863    0.9772    5.3697 H       1  UNL1        0.0286
     46 H           4.5181    1.0967    3.8411 H       1  UNL1        0.0286
     47 H           4.2487    3.7633    4.6153 H       1  UNL1        0.0480
     48 H           3.9005    2.6447    3.2713 H       1  UNL1        0.0480
     49 H           4.5179    5.0277    2.5665 H       1  UNL1        0.0480
     50 H           2.9642    4.4301    1.9280 H       1  UNL1        0.0480
     51 H           5.0194    6.5900    2.2563 H       1  UNL1        0.0652
     52 H           6.0750    8.8274    2.4682 H       1  UNL1        0.0625
     53 H           2.9356    9.9349    5.1420 H       1  UNL1        0.0836
     54 H           1.1208    6.4960    4.5547 H       1  UNL1        0.0480
     55 H           0.7726    5.3774    3.2106 H       1  UNL1        0.0480
     56 H           0.5006    4.1156    5.2537 H       1  UNL1        0.0480
     57 H           2.0551    4.7096    5.8937 H       1  UNL1        0.0480
@<TRIPOS>BOND
     1     1     2    1
     2     1    35    1
     3     1    36    1
     4     1    37    1
     5     2     7   ar
     6     2     3   ar
     7     3     4   ar
     8     4     5   ar
     9     5     6    1
    10     5     7   ar
    11     6    38    1
    12     6    39    1
    13     6    40    1
    14     7     8    1
    15     8     9    2
    16     8    10    2
    17     8    11    1
    18    11    15    1
    19    11    12    1
    20    12    13    1
    21    12    41    1
    22    12    42    1
    23    13    14    1
    24    13    43    1
    25    13    44    1
    26    14    15    1
    27    14    45    1
    28    14    46    1
    29    15    16    1
    30    15    17    1
    31    17    18    2
    32    17    19   am
    33    19    34    1
    34    19    20    1
    35    20    21    1
    36    20    47    1
    37    20    48    1
    38    21    22    1
    39    21    49    1
    40    21    50    1
    41    22    23    1
    42    22    33    1
    43    23    32   ar
    44    23    24   ar
    45    24    25   ar
    46    24    51    1
    47    25    26   ar
    48    25    52    1
    49    26    27    1
    50    26    31   ar
    51    27    28    1
    52    27    29    1
    53    27    30    1
    54    31    32   ar
    55    31    53    1
    56    33    34    1
    57    33    54    1
    58    33    55    1
    59    34    56    1
    60    34    57    1
