@<TRIPOS>MOLECULE
ZINC000085467230
 42 43 0 0 0
SMALL
GASTEIGER

@<TRIPOS>ATOM
      1 C           1.9591    1.3848   -0.1799 C.3     1  UNL1       -0.0377
      2 C           1.9709   -0.1185   -0.4642 C.3     1  UNL1        0.0651
      3 H           1.9843   -0.6664    0.4780 H       1  UNL1        0.0603
      4 O           3.1343   -0.4504   -1.2248 O.3     1  UNL1       -0.3908
      5 C           0.7182   -0.4975   -1.2568 C.3     1  UNL1        0.0248
      6 N           0.6760   -1.9546   -1.4387 N.3     1  UNL1       -0.2974
      7 C           0.9225   -2.6510   -0.1689 C.3     1  UNL1        0.0135
      8 C           0.6920   -4.1537   -0.3612 C.3     1  UNL1        0.0333
      9 N           1.5142   -4.6116   -1.4915 N.3     1  UNL1       -0.1741
     10 S           2.5153   -5.9219   -1.3385 S.O2    1  UNL1        0.0609
     11 O           3.5240   -5.7739   -2.3283 O.2     1  UNL1       -0.1528
     12 O           2.7996   -6.0499    0.0479 O.2     1  UNL1       -0.1528
     13 C           1.5817   -7.3468   -1.7886 C.ar    1  UNL1        0.1055
     14 C           0.8640   -8.0347   -0.8280 C.ar    1  UNL1       -0.0348
     15 C           0.1316   -9.1526   -1.1812 C.ar    1  UNL1       -0.0483
     16 C           0.1166   -9.5825   -2.4949 C.ar    1  UNL1        0.0549
     17 C          -0.6814  -10.8015   -2.8798 C.3     1  UNL1        0.4174
     18 F          -1.9783  -10.4165   -3.2362 F       1  UNL1       -0.1659
     19 F          -0.0685  -11.4365   -3.9653 F       1  UNL1       -0.1659
     20 F          -0.7383  -11.6832   -1.7951 F       1  UNL1       -0.1659
     21 C           0.8332   -8.8938   -3.4557 C.ar    1  UNL1       -0.0483
     22 C           1.5625   -7.7736   -3.1033 C.ar    1  UNL1       -0.0348
     23 C           1.4233   -3.8752   -2.7615 C.3     1  UNL1        0.0333
     24 C           1.6251   -2.3835   -2.4747 C.3     1  UNL1        0.0135
     25 H           1.9458    1.9326   -1.1221 H       1  UNL1        0.0255
     26 H           1.0717    1.6379    0.4002 H       1  UNL1        0.0255
     27 H           2.8516    1.6547    0.3847 H       1  UNL1        0.0255
     28 H           3.9673   -0.2371   -0.7825 H       1  UNL1        0.2098
     29 H          -0.1684   -0.1735   -0.7117 H       1  UNL1        0.0452
     30 H           0.7437   -0.0102   -2.2315 H       1  UNL1        0.0452
     31 H           1.9514   -2.4783    0.1468 H       1  UNL1        0.0440
     32 H           0.2398   -2.2727    0.5919 H       1  UNL1        0.0440
     33 H           0.9833   -4.6875    0.5434 H       1  UNL1        0.0456
     34 H          -0.3606   -4.3381   -0.5758 H       1  UNL1        0.0456
     35 H           0.8758   -7.6989    0.1984 H       1  UNL1        0.0637
     36 H          -0.4285   -9.6905   -0.4306 H       1  UNL1        0.0624
     37 H           0.8212   -9.2294   -4.4821 H       1  UNL1        0.0624
     38 H           2.1224   -7.2356   -3.8539 H       1  UNL1        0.0637
     39 H           2.1981   -4.2250   -3.4437 H       1  UNL1        0.0456
     40 H           0.4410   -4.0329   -3.2067 H       1  UNL1        0.0456
     41 H           1.4518   -1.8112   -3.3860 H       1  UNL1        0.0440
     42 H           2.6442   -2.2145   -2.1268 H       1  UNL1        0.0440
@<TRIPOS>BOND
     1     1     2    1
     2     1    25    1
     3     1    26    1
     4     1    27    1
     5     2     3    1
     6     2     4    1
     7     2     5    1
     8     4    28    1
     9     5     6    1
    10     5    29    1
    11     5    30    1
    12     6    24    1
    13     6     7    1
    14     7     8    1
    15     7    31    1
    16     7    32    1
    17     8     9    1
    18     8    33    1
    19     8    34    1
    20    10     9    1
    21     9    23    1
    22    10    11    2
    23    10    12    2
    24    10    13    1
    25    13    22   ar
    26    13    14   ar
    27    14    15   ar
    28    14    35    1
    29    15    16   ar
    30    15    36    1
    31    16    17    1
    32    16    21   ar
    33    17    18    1
    34    17    19    1
    35    17    20    1
    36    21    22   ar
    37    21    37    1
    38    22    38    1
    39    23    24    1
    40    23    39    1
    41    23    40    1
    42    24    41    1
    43    24    42    1
