@<TRIPOS>MOLECULE
ZINC000024712238
 40 41 0 0 0
SMALL
GASTEIGER

@<TRIPOS>ATOM
      1 C          -0.4034    1.5762   -0.1850 C.3     1  UNL1        0.0029
      2 N          -0.6356    0.1299   -0.1592 N.am    1  UNL1       -0.3063
      3 C          -1.3240   -0.4813    0.9804 C.3     1  UNL1        0.0029
      4 C          -0.2159   -0.6383   -1.1840 C.2     1  UNL1        0.2340
      5 O           0.4309   -0.1473   -2.0848 O.2     1  UNL1       -0.2738
      6 C          -0.5502   -2.1076   -1.2104 C.3     1  UNL1        0.1080
      7 H          -1.5078   -2.2786   -0.7187 H       1  UNL1        0.0576
      8 C           0.5574   -2.9108   -0.4965 C.3     1  UNL1       -0.0260
      9 C           0.6791   -4.1872   -1.3701 C.3     1  UNL1       -0.0366
     10 C           0.4252   -3.6186   -2.7886 C.3     1  UNL1        0.0214
     11 N          -0.6104   -2.5817   -2.6008 N.3     1  UNL1       -0.1647
     12 S          -1.6597   -2.0440   -3.7636 S.O2    1  UNL1        0.0615
     13 O          -2.0666   -0.7419   -3.3658 O.2     1  UNL1       -0.1528
     14 O          -1.0459   -2.3178   -5.0156 O.2     1  UNL1       -0.1528
     15 C          -3.0960   -3.0612   -3.6806 C.ar    1  UNL1        0.1060
     16 C          -3.1682   -4.2178   -4.4338 C.ar    1  UNL1       -0.0353
     17 C          -4.2952   -5.0160   -4.3686 C.ar    1  UNL1       -0.0594
     18 C          -5.3495   -4.6575   -3.5499 C.ar    1  UNL1       -0.0500
     19 C          -5.2770   -3.5010   -2.7958 C.ar    1  UNL1        0.0567
     20 C          -6.4267   -3.1100   -1.9034 C.3     1  UNL1        0.4175
     21 F          -7.4434   -4.0653   -2.0072 F       1  UNL1       -0.1659
     22 F          -5.9854   -3.0407   -0.5777 F       1  UNL1       -0.1659
     23 F          -6.9186   -1.8609   -2.2971 F       1  UNL1       -0.1659
     24 C          -4.1485   -2.7054   -2.8576 C.ar    1  UNL1       -0.0237
     25 H           0.5567    1.7984    0.2806 H       1  UNL1        0.0428
     26 H          -0.3957    1.9246   -1.2178 H       1  UNL1        0.0428
     27 H          -1.1986    2.0816    0.3630 H       1  UNL1        0.0428
     28 H          -2.3854   -0.5809    0.7529 H       1  UNL1        0.0428
     29 H          -0.9002   -1.4664    1.1752 H       1  UNL1        0.0428
     30 H          -1.1987    0.1487    1.8610 H       1  UNL1        0.0428
     31 H           1.4952   -2.3552   -0.4926 H       1  UNL1        0.0286
     32 H           0.2549   -3.1660    0.5192 H       1  UNL1        0.0286
     33 H           1.6774   -4.6183   -1.2950 H       1  UNL1        0.0279
     34 H          -0.0822   -4.9192   -1.1006 H       1  UNL1        0.0279
     35 H           1.3377   -3.1770   -3.1892 H       1  UNL1        0.0444
     36 H           0.0593   -4.4025   -3.4516 H       1  UNL1        0.0444
     37 H          -2.3444   -4.4979   -5.0735 H       1  UNL1        0.0637
     38 H          -4.3519   -5.9194   -4.9578 H       1  UNL1        0.0618
     39 H          -6.2302   -5.2807   -3.4996 H       1  UNL1        0.0623
     40 H          -4.0918   -1.8020   -2.2685 H       1  UNL1        0.0642
@<TRIPOS>BOND
     1     1     2    1
     2     1    25    1
     3     1    26    1
     4     1    27    1
     5     2     3    1
     6     2     4   am
     7     3    28    1
     8     3    29    1
     9     3    30    1
    10     4     5    2
    11     4     6    1
    12     6     7    1
    13     6    11    1
    14     6     8    1
    15     8     9    1
    16     8    31    1
    17     8    32    1
    18     9    10    1
    19     9    33    1
    20     9    34    1
    21    10    11    1
    22    10    35    1
    23    10    36    1
    24    12    11    1
    25    12    13    2
    26    12    14    2
    27    12    15    1
    28    15    24   ar
    29    15    16   ar
    30    16    17   ar
    31    16    37    1
    32    17    18   ar
    33    17    38    1
    34    18    19   ar
    35    18    39    1
    36    19    20    1
    37    19    24   ar
    38    20    21    1
    39    20    22    1
    40    20    23    1
    41    24    40    1
