@<TRIPOS>MOLECULE
ZINC000013656358
 42 44 0 0 0
SMALL
GASTEIGER

@<TRIPOS>ATOM
      1 C          -0.2798   -0.0489   -0.8958 C.3     1  UNL1        0.0788
      2 O          -0.4585   -1.4351   -0.5986 O.3     1  UNL1       -0.4951
      3 C           0.2193   -1.9293    0.4706 C.ar    1  UNL1        0.1201
      4 C           1.0352   -1.0957    1.2218 C.ar    1  UNL1       -0.0196
      5 C           1.7228   -1.6003    2.3085 C.ar    1  UNL1       -0.0536
      6 C           1.5988   -2.9350    2.6475 C.ar    1  UNL1       -0.0293
      7 C           2.3504   -3.4829    3.8332 C.3     1  UNL1        0.0490
      8 N           1.5254   -3.3531    5.0369 N.am    1  UNL1       -0.2182
      9 C           1.5305   -2.2828    5.8397 C.2     1  UNL1        0.3110
     10 O           2.2239   -1.3021    5.6538 O.2     1  UNL1       -0.2521
     11 N           0.6824   -2.4135    6.8757 N.am    1  UNL1       -0.2632
     12 C           0.0431   -3.7330    6.7330 C.3     1  UNL1        0.2776
     13 N           0.3526   -4.5830    7.8854 N.am    1  UNL1       -0.2796
     14 C           0.0161   -5.8880    7.8699 C.2     1  UNL1        0.2182
     15 O          -0.4670   -6.3778    6.8711 O.2     1  UNL1       -0.2754
     16 C           0.2402   -6.7385    9.0936 C.3     1  UNL1        0.0357
     17 C          -0.9966   -7.2358    9.8445 C.3     1  UNL1       -0.0412
     18 C          -0.1625   -8.2124    9.0129 C.3     1  UNL1       -0.0412
     19 C          -1.4705   -3.5828    6.5680 C.3     1  UNL1        0.4365
     20 F          -1.7398   -2.7135    5.5055 F       1  UNL1       -0.1662
     21 F          -2.0370   -4.8340    6.3019 F       1  UNL1       -0.1662
     22 F          -2.0187   -3.0636    7.7458 F       1  UNL1       -0.1662
     23 C           0.6634   -4.2945    5.4690 C.2     1  UNL1        0.2745
     24 O           0.4356   -5.3694    4.9566 O.2     1  UNL1       -0.2706
     25 C           0.7860   -3.7677    1.9008 C.ar    1  UNL1       -0.0536
     26 C           0.0922   -3.2668    0.8163 C.ar    1  UNL1       -0.0196
     27 H           0.7729    0.1460   -1.1009 H       1  UNL1        0.0660
     28 H          -0.8751    0.2150   -1.7700 H       1  UNL1        0.0660
     29 H          -0.6008    0.5498   -0.0434 H       1  UNL1        0.0660
     30 H           1.1329   -0.0532    0.9570 H       1  UNL1        0.0654
     31 H           2.3580   -0.9517    2.8936 H       1  UNL1        0.0622
     32 H           2.5814   -4.5344    3.6627 H       1  UNL1        0.0519
     33 H           3.2770   -2.9243    3.9658 H       1  UNL1        0.0519
     34 H           0.5233   -1.7655    7.5798 H       1  UNL1        0.1530
     35 H           0.7997   -4.2066    8.6596 H       1  UNL1        0.1515
     36 H           1.1216   -6.4892    9.6844 H       1  UNL1        0.0394
     37 H          -0.9292   -7.3136   10.9296 H       1  UNL1        0.0273
     38 H          -1.9724   -6.9477    9.4534 H       1  UNL1        0.0273
     39 H          -0.5895   -8.5668    8.0748 H       1  UNL1        0.0273
     40 H           0.4537   -8.9326    9.5510 H       1  UNL1        0.0273
     41 H           0.6905   -4.8098    2.1678 H       1  UNL1        0.0622
     42 H          -0.5426   -3.9177    0.2333 H       1  UNL1        0.0654
@<TRIPOS>BOND
     1     1     2    1
     2     1    27    1
     3     1    28    1
     4     1    29    1
     5     2     3    1
     6     3    26   ar
     7     3     4   ar
     8     4     5   ar
     9     4    30    1
    10     5     6   ar
    11     5    31    1
    12     6     7    1
    13     6    25   ar
    14     7     8    1
    15     7    32    1
    16     7    33    1
    17     8    23   am
    18     8     9   am
    19     9    10    2
    20     9    11   am
    21    11    12    1
    22    11    34    1
    23    12    13    1
    24    12    19    1
    25    12    23    1
    26    13    14   am
    27    13    35    1
    28    14    15    2
    29    14    16    1
    30    16    18    1
    31    16    17    1
    32    16    36    1
    33    17    18    1
    34    17    37    1
    35    17    38    1
    36    18    39    1
    37    18    40    1
    38    19    20    1
    39    19    21    1
    40    19    22    1
    41    23    24    2
    42    25    26   ar
    43    25    41    1
    44    26    42    1
