@<TRIPOS>MOLECULE
ZINC000408621694
 56 57 0 0 0
SMALL
GASTEIGER

@<TRIPOS>ATOM
      1 C          -3.6449  -12.3390   -5.1032 C.3     1  UNL1       -0.0307
      2 C          -3.7341  -11.1121   -4.1935 C.3     1  UNL1        0.0868
      3 O          -2.4538  -10.8557   -3.6127 O.3     1  UNL1       -0.4922
      4 C          -2.3595   -9.7919   -2.7722 C.ar    1  UNL1        0.1206
      5 C          -3.4774   -9.0143   -2.5074 C.ar    1  UNL1       -0.0181
      6 C          -3.3790   -7.9338   -1.6524 C.ar    1  UNL1       -0.0319
      7 C          -2.1675   -7.6267   -1.0610 C.ar    1  UNL1        0.1057
      8 S          -2.0451   -6.2475    0.0286 S.O2    1  UNL1        0.0616
      9 O          -0.7088   -5.7747   -0.0710 O.2     1  UNL1       -0.1528
     10 O          -3.1796   -5.4312   -0.2283 O.2     1  UNL1       -0.1528
     11 N          -2.2234   -6.8239    1.5708 N.3     1  UNL1       -0.1635
     12 C          -3.5636   -7.0217    2.1285 C.3     1  UNL1        0.0971
     13 C          -3.9842   -8.4550    1.9291 C.2     1  UNL1        0.2290
     14 O          -3.2379   -9.2345    1.3756 O.2     1  UNL1       -0.2743
     15 N          -5.1896   -8.8706    2.3658 N.am    1  UNL1       -0.3116
     16 C          -5.5984  -10.2639    2.1719 C.3     1  UNL1        0.0201
     17 H          -4.7286  -10.9141    2.2649 H       1  UNL1        0.0495
     18 C          -6.2103  -10.4268    0.7790 C.3     1  UNL1       -0.0466
     19 C          -6.6346  -10.6436    3.2317 C.3     1  UNL1       -0.0376
     20 C          -5.9865  -10.6010    4.6169 C.3     1  UNL1       -0.0636
     21 C          -1.0410   -7.1360    2.3774 C.3     1  UNL1        0.0460
     22 C          -0.7100   -5.9599    3.2597 C.ar    1  UNL1       -0.0317
     23 C           0.2267   -5.0299    2.8491 C.ar    1  UNL1       -0.0573
     24 C           0.5303   -3.9510    3.6583 C.ar    1  UNL1       -0.0615
     25 C          -0.1031   -3.8020    4.8779 C.ar    1  UNL1       -0.0617
     26 C          -1.0405   -4.7315    5.2881 C.ar    1  UNL1       -0.0615
     27 C          -1.3472   -5.8080    4.4769 C.ar    1  UNL1       -0.0573
     28 C          -1.0519   -8.4004   -1.3230 C.ar    1  UNL1       -0.0319
     29 C          -1.1463   -9.4851   -2.1732 C.ar    1  UNL1       -0.0181
     30 H          -4.6215  -12.5345   -5.5462 H       1  UNL1        0.0262
     31 H          -2.9180  -12.1530   -5.8938 H       1  UNL1        0.0262
     32 H          -3.3319  -13.2035   -4.5177 H       1  UNL1        0.0262
     33 H          -4.0472  -10.2476   -4.7789 H       1  UNL1        0.0694
     34 H          -4.4610  -11.2980   -3.4029 H       1  UNL1        0.0694
     35 H          -4.4238   -9.2533   -2.9696 H       1  UNL1        0.0655
     36 H          -4.2490   -7.3281   -1.4459 H       1  UNL1        0.0638
     37 H          -3.5514   -6.7915    3.1939 H       1  UNL1        0.0539
     38 H          -4.2687   -6.3623    1.6224 H       1  UNL1        0.0539
     39 H          -5.7864   -8.2471    2.8085 H       1  UNL1        0.1490
     40 H          -7.0802   -9.7766    0.6860 H       1  UNL1        0.0247
     41 H          -5.4721  -10.1563    0.0240 H       1  UNL1        0.0247
     42 H          -6.5145  -11.4635    0.6348 H       1  UNL1        0.0247
     43 H          -7.4649   -9.9382    3.1971 H       1  UNL1        0.0280
     44 H          -7.0043  -11.6498    3.0343 H       1  UNL1        0.0280
     45 H          -6.7247  -10.8714    5.3719 H       1  UNL1        0.0230
     46 H          -5.1562  -11.3064    4.6515 H       1  UNL1        0.0230
     47 H          -5.6168   -9.5947    4.8143 H       1  UNL1        0.0230
     48 H          -1.2441   -8.0093    2.9973 H       1  UNL1        0.0493
     49 H          -0.1975   -7.3455    1.7197 H       1  UNL1        0.0493
     50 H           0.7216   -5.1463    1.8962 H       1  UNL1        0.0621
     51 H           1.2627   -3.2248    3.3378 H       1  UNL1        0.0618
     52 H           0.1346   -2.9595    5.5105 H       1  UNL1        0.0618
     53 H          -1.5351   -4.6152    6.2411 H       1  UNL1        0.0618
     54 H          -2.0796   -6.5342    4.7974 H       1  UNL1        0.0621
     55 H          -0.1068   -8.1587   -0.8596 H       1  UNL1        0.0638
     56 H          -0.2747  -10.0892   -2.3775 H       1  UNL1        0.0655
@<TRIPOS>BOND
     1     1     2    1
     2     1    30    1
     3     1    31    1
     4     1    32    1
     5     2     3    1
     6     2    33    1
     7     2    34    1
     8     3     4    1
     9     4    29   ar
    10     4     5   ar
    11     5     6   ar
    12     5    35    1
    13     6     7   ar
    14     6    36    1
    15     7     8    1
    16     7    28   ar
    17     8     9    2
    18     8    10    2
    19     8    11    1
    20    11    12    1
    21    11    21    1
    22    12    13    1
    23    12    37    1
    24    12    38    1
    25    13    14    2
    26    13    15   am
    27    15    16    1
    28    15    39    1
    29    16    17    1
    30    16    18    1
    31    16    19    1
    32    18    40    1
    33    18    41    1
    34    18    42    1
    35    19    20    1
    36    19    43    1
    37    19    44    1
    38    20    45    1
    39    20    46    1
    40    20    47    1
    41    21    22    1
    42    21    48    1
    43    21    49    1
    44    22    27   ar
    45    22    23   ar
    46    23    24   ar
    47    23    50    1
    48    24    25   ar
    49    24    51    1
    50    25    26   ar
    51    25    52    1
    52    26    27   ar
    53    26    53    1
    54    27    54    1
    55    28    29   ar
    56    28    55    1
    57    29    56    1
