@<TRIPOS>MOLECULE
ZINC000064943775
 42 43 0 0 0
SMALL
GASTEIGER

@<TRIPOS>ATOM
      1 C          -0.0187    1.5258    0.0104 C.3     1  UNL1       -0.0652
      2 C           0.0021   -0.0041    0.0020 C.3     1  UNL1       -0.0544
      3 C           0.7182   -0.4975   -1.2568 C.3     1  UNL1       -0.0324
      4 C           0.7390   -2.0273   -1.2652 C.3     1  UNL1        0.0820
      5 S           1.5880   -2.6123   -2.7577 S.O2    1  UNL1        0.0324
      6 O           0.8185   -2.3203   -3.9160 O.2     1  UNL1       -0.1580
      7 O           2.9725   -2.2977   -2.6994 O.2     1  UNL1       -0.1580
      8 N           1.5391   -4.2635   -2.6405 N.3     1  UNL1       -0.1738
      9 C           0.4128   -5.0054   -3.2126 C.3     1  UNL1        0.0454
     10 C           0.7723   -5.4738   -4.5991 C.ar    1  UNL1       -0.0316
     11 C           0.5049   -4.6699   -5.6913 C.ar    1  UNL1       -0.0568
     12 C           0.8346   -5.0996   -6.9632 C.ar    1  UNL1       -0.0498
     13 C           1.4322   -6.3331   -7.1427 C.ar    1  UNL1        0.0548
     14 C           1.7912   -6.8018   -8.5292 C.3     1  UNL1        0.4174
     15 F           3.0912   -6.3881   -8.8393 F       1  UNL1       -0.1659
     16 F           1.7209   -8.1980   -8.5823 F       1  UNL1       -0.1659
     17 F           0.8947   -6.2543   -9.4533 F       1  UNL1       -0.1659
     18 C           1.7009   -7.1365   -6.0503 C.ar    1  UNL1       -0.0498
     19 C           1.3746   -6.7051   -4.7782 C.ar    1  UNL1       -0.0568
     20 C           2.6222   -4.9823   -1.9648 C.3     1  UNL1        0.0320
     21 C           2.4261   -6.4781   -1.7101 C.3     1  UNL1       -0.0342
     22 C           3.4087   -6.0073   -2.7842 C.3     1  UNL1       -0.0342
     23 H           1.0039    1.9031    0.0027 H       1  UNL1        0.0230
     24 H          -0.5459    1.8868   -0.8726 H       1  UNL1        0.0230
     25 H          -0.5289    1.8773    0.9072 H       1  UNL1        0.0230
     26 H           0.5293   -0.3651    0.8851 H       1  UNL1        0.0263
     27 H          -1.0205   -0.3814    0.0098 H       1  UNL1        0.0263
     28 H           0.1910   -0.1364   -2.1398 H       1  UNL1        0.0281
     29 H           1.7408   -0.1202   -1.2645 H       1  UNL1        0.0281
     30 H           1.2661   -2.3884   -0.3821 H       1  UNL1        0.0515
     31 H          -0.2836   -2.4046   -1.2575 H       1  UNL1        0.0515
     32 H           0.1891   -5.8675   -2.5844 H       1  UNL1        0.0493
     33 H          -0.4614   -4.3563   -3.2637 H       1  UNL1        0.0493
     34 H           0.0380   -3.7061   -5.5511 H       1  UNL1        0.0621
     35 H           0.6250   -4.4718   -7.8166 H       1  UNL1        0.0623
     36 H           2.1681   -8.1000   -6.1906 H       1  UNL1        0.0623
     37 H           1.5846   -7.3328   -3.9247 H       1  UNL1        0.0621
     38 H           3.1691   -4.4111   -1.2146 H       1  UNL1        0.0480
     39 H           2.8439   -6.8913   -0.7921 H       1  UNL1        0.0281
     40 H           1.4913   -6.9274   -2.0453 H       1  UNL1        0.0281
     41 H           3.1203   -6.1469   -3.8261 H       1  UNL1        0.0281
     42 H           4.4730   -6.1109   -2.5729 H       1  UNL1        0.0281
@<TRIPOS>BOND
     1     1     2    1
     2     1    23    1
     3     1    24    1
     4     1    25    1
     5     2     3    1
     6     2    26    1
     7     2    27    1
     8     3     4    1
     9     3    28    1
    10     3    29    1
    11     4     5    1
    12     4    30    1
    13     4    31    1
    14     5     6    2
    15     5     7    2
    16     5     8    1
    17     8     9    1
    18     8    20    1
    19     9    10    1
    20     9    32    1
    21     9    33    1
    22    10    19   ar
    23    10    11   ar
    24    11    12   ar
    25    11    34    1
    26    12    13   ar
    27    12    35    1
    28    13    14    1
    29    13    18   ar
    30    14    15    1
    31    14    16    1
    32    14    17    1
    33    18    19   ar
    34    18    36    1
    35    19    37    1
    36    20    22    1
    37    20    21    1
    38    20    38    1
    39    21    22    1
    40    21    39    1
    41    21    40    1
    42    22    41    1
    43    22    42    1
