@<TRIPOS>MOLECULE
ZINC000187154036
 35 36 0 0 0
SMALL
GASTEIGER

@<TRIPOS>ATOM
      1 C          -0.0187    1.5258    0.0104 C.3     1  UNL1       -0.0484
      2 C           0.0021   -0.0041    0.0020 C.3     1  UNL1        0.0192
      3 H           0.5122   -0.3560   -0.8947 H       1  UNL1        0.0471
      4 C          -1.4353   -0.5350    0.0142 C.3     1  UNL1        0.0357
      5 N          -1.3917   -1.9983    0.1568 N.3     1  UNL1       -0.1738
      6 S          -2.2262   -2.9790   -0.8844 S.O2    1  UNL1        0.0637
      7 O          -2.4418   -4.2035   -0.1964 O.2     1  UNL1       -0.1528
      8 O          -3.2815   -2.1914   -1.4186 O.2     1  UNL1       -0.1528
      9 C          -1.1498   -3.3471   -2.2299 C.ar    1  UNL1        0.1410
     10 C          -0.7303   -4.6461   -2.4440 C.ar    1  UNL1       -0.0209
     11 C           0.1144   -4.9352   -3.4998 C.ar    1  UNL1        0.0568
     12 C           0.5712   -6.3524   -3.7322 C.3     1  UNL1        0.4175
     13 F          -0.3317   -6.9999   -4.5824 F       1  UNL1       -0.1659
     14 F           1.8405   -6.3427   -4.3203 F       1  UNL1       -0.1659
     15 F           0.6287   -7.0302   -2.5098 F       1  UNL1       -0.1659
     16 C           0.5398   -3.9255   -4.3425 C.ar    1  UNL1       -0.0473
     17 C           0.1219   -2.6253   -4.1300 C.ar    1  UNL1       -0.0240
     18 C          -0.7285   -2.3355   -3.0767 C.ar    1  UNL1        0.1496
     19 F          -1.1376   -1.0650   -2.8680 F       1  UNL1       -0.2034
     20 C          -0.5868   -2.5674    1.2484 C.3     1  UNL1        0.0331
     21 C           0.8172   -1.9564    1.1876 C.3     1  UNL1        0.0106
     22 N           0.7114   -0.4912    1.1926 N.3     1  UNL1       -0.3110
     23 H           1.0039    1.9031    0.0027 H       1  UNL1        0.0245
     24 H          -0.5459    1.8868   -0.8726 H       1  UNL1        0.0245
     25 H          -0.5289    1.8773    0.9072 H       1  UNL1        0.0245
     26 H          -1.9787   -0.1014    0.8537 H       1  UNL1        0.0459
     27 H          -1.9305   -0.2729   -0.9207 H       1  UNL1        0.0459
     28 H          -1.0621   -5.4358   -1.7863 H       1  UNL1        0.0643
     29 H           1.1993   -4.1526   -5.1670 H       1  UNL1        0.0624
     30 H           0.4549   -1.8364   -4.7881 H       1  UNL1        0.0647
     31 H          -1.0487   -2.3291    2.2065 H       1  UNL1        0.0456
     32 H          -0.5210   -3.6488    1.1294 H       1  UNL1        0.0456
     33 H           1.3935   -2.2824    2.0534 H       1  UNL1        0.0437
     34 H           1.3161   -2.2815    0.2746 H       1  UNL1        0.0437
     35 H           1.6216   -0.0632    1.2722 H       1  UNL1        0.1223
@<TRIPOS>BOND
     1     1     2    1
     2     1    23    1
     3     1    24    1
     4     1    25    1
     5     2     3    1
     6     2    22    1
     7     2     4    1
     8     4     5    1
     9     4    26    1
    10     4    27    1
    11     6     5    1
    12     5    20    1
    13     6     7    2
    14     6     8    2
    15     6     9    1
    16     9    18   ar
    17     9    10   ar
    18    10    11   ar
    19    10    28    1
    20    11    12    1
    21    11    16   ar
    22    12    13    1
    23    12    14    1
    24    12    15    1
    25    16    17   ar
    26    16    29    1
    27    17    18   ar
    28    17    30    1
    29    18    19    1
    30    20    21    1
    31    20    31    1
    32    20    32    1
    33    21    22    1
    34    21    33    1
    35    21    34    1
    36    22    35    1
