@<TRIPOS>MOLECULE
ZINC000012993009
 49 52 0 0 0
SMALL
GASTEIGER

@<TRIPOS>ATOM
      1 O           0.0021   -0.0041    0.0020 O.2     1  UNL1       -0.1528
      2 S          -0.0172    1.4168    0.0098 S.O2    1  UNL1        0.0614
      3 O           1.1617    2.2101    0.0028 O.2     1  UNL1       -0.1528
      4 C          -0.9567    1.9094   -1.3970 C.ar    1  UNL1        0.1055
      5 C          -1.8848    1.0442   -1.9458 C.ar    1  UNL1       -0.0348
      6 C          -2.6219    1.4307   -3.0496 C.ar    1  UNL1       -0.0483
      7 C          -2.4313    2.6825   -3.6042 C.ar    1  UNL1        0.0549
      8 C          -3.2345    3.1036   -4.8078 C.3     1  UNL1        0.4174
      9 F          -4.4138    3.7273   -4.3864 F       1  UNL1       -0.1659
     10 F          -2.4843    3.9973   -5.5796 F       1  UNL1       -0.1659
     11 F          -3.5510    1.9771   -5.5746 F       1  UNL1       -0.1659
     12 C          -1.5042    3.5481   -3.0546 C.ar    1  UNL1       -0.0483
     13 C          -0.7699    3.1631   -1.9485 C.ar    1  UNL1       -0.0348
     14 N          -0.8748    1.8654    1.3536 N.3     1  UNL1       -0.1692
     15 C          -0.7685    3.1619    2.0474 C.3     1  UNL1        0.0212
     16 C          -1.2409    2.8768    3.4949 C.3     1  UNL1       -0.0368
     17 C          -2.3841    1.8558    3.2541 C.3     1  UNL1       -0.0304
     18 C          -1.8728    1.0392    2.0485 C.3     1  UNL1        0.0569
     19 H          -1.4065    0.1174    2.3961 H       1  UNL1        0.0529
     20 C          -3.0190    0.7168    1.1247 C.ar    1  UNL1       -0.0249
     21 C          -3.4921    1.6787    0.2523 C.ar    1  UNL1       -0.0533
     22 C          -4.5444    1.3901   -0.5989 C.ar    1  UNL1       -0.0160
     23 C          -5.1224    0.1326   -0.5734 C.ar    1  UNL1        0.1619
     24 O          -6.1616   -0.1649   -1.4063 O.3     1  UNL1       -0.4882
     25 C          -5.8828   -1.1127   -2.4390 C.3     1  UNL1        0.0928
     26 C          -6.0357   -2.5344   -1.9217 C.3     1  UNL1        0.0157
     27 C          -5.0154   -2.8721   -0.8460 C.3     1  UNL1        0.0928
     28 O          -5.2229   -2.0706    0.3188 O.3     1  UNL1       -0.4882
     29 C          -4.6466   -0.8336    0.3021 C.ar    1  UNL1        0.1622
     30 C          -3.5906   -0.5432    1.1486 C.ar    1  UNL1       -0.0116
     31 H          -2.0336    0.0662   -1.5125 H       1  UNL1        0.0637
     32 H          -3.3464    0.7545   -3.4788 H       1  UNL1        0.0624
     33 H          -1.3556    4.5263   -3.4877 H       1  UNL1        0.0624
     34 H          -0.0456    3.8394   -1.5191 H       1  UNL1        0.0637
     35 H           0.2648    3.5088    2.0469 H       1  UNL1        0.0444
     36 H          -1.4174    3.8993    1.5749 H       1  UNL1        0.0444
     37 H          -0.4401    2.4342    4.0872 H       1  UNL1        0.0279
     38 H          -1.6196    3.7830    3.9679 H       1  UNL1        0.0279
     39 H          -2.5200    1.2163    4.1263 H       1  UNL1        0.0284
     40 H          -3.3124    2.3685    3.0022 H       1  UNL1        0.0284
     41 H          -3.0392    2.6591    0.2350 H       1  UNL1        0.0622
     42 H          -4.9133    2.1428   -1.2798 H       1  UNL1        0.0655
     43 H          -6.5747   -0.9556   -3.2664 H       1  UNL1        0.0697
     44 H          -4.8622   -0.9676   -2.7931 H       1  UNL1        0.0697
     45 H          -7.0372   -2.6540   -1.5085 H       1  UNL1        0.0331
     46 H          -5.9140   -3.2279   -2.7539 H       1  UNL1        0.0331
     47 H          -5.1106   -3.9245   -0.5789 H       1  UNL1        0.0697
     48 H          -4.0127   -2.6901   -1.2327 H       1  UNL1        0.0697
     49 H          -3.2170   -1.2955    1.8274 H       1  UNL1        0.0658
@<TRIPOS>BOND
     1     1     2    2
     2     2     3    2
     3     2     4    1
     4     2    14    1
     5     4    13   ar
     6     4     5   ar
     7     5     6   ar
     8     5    31    1
     9     6     7   ar
    10     6    32    1
    11     7     8    1
    12     7    12   ar
    13     8     9    1
    14     8    10    1
    15     8    11    1
    16    12    13   ar
    17    12    33    1
    18    13    34    1
    19    14    18    1
    20    14    15    1
    21    15    16    1
    22    15    35    1
    23    15    36    1
    24    16    17    1
    25    16    37    1
    26    16    38    1
    27    17    18    1
    28    17    39    1
    29    17    40    1
    30    18    19    1
    31    18    20    1
    32    20    30   ar
    33    20    21   ar
    34    21    22   ar
    35    21    41    1
    36    22    23   ar
    37    22    42    1
    38    23    29   ar
    39    23    24    1
    40    24    25    1
    41    25    26    1
    42    25    43    1
    43    25    44    1
    44    26    27    1
    45    26    45    1
    46    26    46    1
    47    27    28    1
    48    27    47    1
    49    27    48    1
    50    28    29    1
    51    29    30   ar
    52    30    49    1
