@<TRIPOS>MOLECULE
ZINC000408608230
 66 68 0 0 0
SMALL
GASTEIGER

@<TRIPOS>ATOM
      1 C          -0.0173    1.4248    0.0099 C.3     1  UNL1        0.0788
      2 O           0.0021   -0.0041    0.0020 O.3     1  UNL1       -0.4951
      3 C           0.6258   -0.6184    1.0415 C.ar    1  UNL1        0.1202
      4 C           1.2022    0.1384    2.0513 C.ar    1  UNL1       -0.0181
      5 C           1.8353   -0.4884    3.1070 C.ar    1  UNL1       -0.0319
      6 C           1.8951   -1.8688    3.1577 C.ar    1  UNL1        0.1057
      7 S           2.7038   -2.6653    4.5054 S.O2    1  UNL1        0.0613
      8 O           3.0893   -3.9510    4.0389 O.2     1  UNL1       -0.1528
      9 O           3.6254   -1.7219    5.0345 O.2     1  UNL1       -0.1528
     10 N           1.5649   -2.9166    5.6811 N.3     1  UNL1       -0.1675
     11 C           0.7891   -4.1592    5.6958 C.3     1  UNL1        0.0250
     12 C           1.4543   -5.1647    6.6378 C.3     1  UNL1       -0.0132
     13 C           0.6562   -6.4429    6.6529 C.ar    1  UNL1       -0.0461
     14 C          -0.3682   -6.6073    7.5663 C.ar    1  UNL1       -0.0585
     15 C          -1.1003   -7.7798    7.5802 C.ar    1  UNL1       -0.0615
     16 C          -0.8082   -8.7877    6.6803 C.ar    1  UNL1       -0.0617
     17 C           0.2156   -8.6229    5.7663 C.ar    1  UNL1       -0.0615
     18 C           0.9449   -7.4487    5.7496 C.ar    1  UNL1       -0.0585
     19 C           1.3333   -1.8962    6.7066 C.3     1  UNL1        0.0968
     20 C           0.1851   -1.0146    6.2877 C.2     1  UNL1        0.2290
     21 O          -0.3837   -1.2185    5.2361 O.2     1  UNL1       -0.2743
     22 N          -0.2096    0.0004    7.0816 N.am    1  UNL1       -0.3116
     23 C          -1.3258    0.8575    6.6744 C.3     1  UNL1        0.0206
     24 H          -2.0652    0.2614    6.1396 H       1  UNL1        0.0495
     25 C          -0.8079    1.9688    5.7591 C.3     1  UNL1       -0.0466
     26 C          -1.9714    1.4780    7.9150 C.3     1  UNL1       -0.0308
     27 C          -2.5990    0.3746    8.7692 C.3     1  UNL1       -0.0260
     28 C          -3.2349    0.9857    9.9911 C.ar    1  UNL1       -0.0473
     29 C          -2.4949    1.1480   11.1474 C.ar    1  UNL1       -0.0586
     30 C          -3.0782    1.7086   12.2683 C.ar    1  UNL1       -0.0615
     31 C          -4.4013    2.1073   12.2328 C.ar    1  UNL1       -0.0617
     32 C          -5.1410    1.9459   11.0762 C.ar    1  UNL1       -0.0615
     33 C          -4.5565    1.3892    9.9540 C.ar    1  UNL1       -0.0586
     34 C           1.3210   -2.6254    2.1528 C.ar    1  UNL1       -0.0319
     35 C           0.6822   -2.0034    1.0976 C.ar    1  UNL1       -0.0181
     36 H           1.0053    1.8021    0.0021 H       1  UNL1        0.0660
     37 H          -0.5445    1.7859   -0.8732 H       1  UNL1        0.0660
     38 H          -0.5275    1.7763    0.9067 H       1  UNL1        0.0660
     39 H           1.1564    1.2167    2.0118 H       1  UNL1        0.0655
     40 H           2.2842    0.1003    3.8934 H       1  UNL1        0.0638
     41 H          -0.2232   -3.9514    6.0424 H       1  UNL1        0.0447
     42 H           0.7502   -4.5752    4.6891 H       1  UNL1        0.0447
     43 H           2.4666   -5.3725    6.2912 H       1  UNL1        0.0326
     44 H           1.4932   -4.7487    7.6446 H       1  UNL1        0.0326
     45 H          -0.5964   -5.8199    8.2694 H       1  UNL1        0.0620
     46 H          -1.9002   -7.9086    8.2943 H       1  UNL1        0.0618
     47 H          -1.3797   -9.7040    6.6916 H       1  UNL1        0.0618
     48 H           0.4441   -9.4105    5.0635 H       1  UNL1        0.0618
     49 H           1.7448   -7.3199    5.0355 H       1  UNL1        0.0620
     50 H           1.0931   -2.3804    7.6531 H       1  UNL1        0.0539
     51 H           2.2317   -1.2906    6.8259 H       1  UNL1        0.0539
     52 H           0.2453    0.1635    7.9226 H       1  UNL1        0.1490
     53 H          -0.0684    2.5649    6.2939 H       1  UNL1        0.0247
     54 H          -0.3480    1.5268    4.8753 H       1  UNL1        0.0247
     55 H          -1.6384    2.6065    5.4561 H       1  UNL1        0.0247
     56 H          -1.2121    2.0004    8.4969 H       1  UNL1        0.0286
     57 H          -2.7435    2.1836    7.6084 H       1  UNL1        0.0286
     58 H          -3.3583   -0.1478    8.1872 H       1  UNL1        0.0314
     59 H          -1.8269   -0.3310    9.0758 H       1  UNL1        0.0314
     60 H          -1.4612    0.8365   11.1752 H       1  UNL1        0.0620
     61 H          -2.5003    1.8347   13.1719 H       1  UNL1        0.0618
     62 H          -4.8572    2.5447   13.1087 H       1  UNL1        0.0618
     63 H          -6.1748    2.2571   11.0485 H       1  UNL1        0.0618
     64 H          -5.1344    1.2631    9.0503 H       1  UNL1        0.0620
     65 H           1.3687   -3.7035    2.1948 H       1  UNL1        0.0638
     66 H           0.2339   -2.5948    0.3129 H       1  UNL1        0.0655
@<TRIPOS>BOND
     1     1     2    1
     2     1    36    1
     3     1    37    1
     4     1    38    1
     5     2     3    1
     6     3    35   ar
     7     3     4   ar
     8     4     5   ar
     9     4    39    1
    10     5     6   ar
    11     5    40    1
    12     6     7    1
    13     6    34   ar
    14     7     8    2
    15     7     9    2
    16     7    10    1
    17    10    11    1
    18    10    19    1
    19    11    12    1
    20    11    41    1
    21    11    42    1
    22    12    13    1
    23    12    43    1
    24    12    44    1
    25    13    18   ar
    26    13    14   ar
    27    14    15   ar
    28    14    45    1
    29    15    16   ar
    30    15    46    1
    31    16    17   ar
    32    16    47    1
    33    17    18   ar
    34    17    48    1
    35    18    49    1
    36    19    20    1
    37    19    50    1
    38    19    51    1
    39    20    21    2
    40    20    22   am
    41    22    23    1
    42    22    52    1
    43    23    24    1
    44    23    25    1
    45    23    26    1
    46    25    53    1
    47    25    54    1
    48    25    55    1
    49    26    27    1
    50    26    56    1
    51    26    57    1
    52    27    28    1
    53    27    58    1
    54    27    59    1
    55    28    33   ar
    56    28    29   ar
    57    29    30   ar
    58    29    60    1
    59    30    31   ar
    60    30    61    1
    61    31    32   ar
    62    31    62    1
    63    32    33   ar
    64    32    63    1
    65    33    64    1
    66    34    35   ar
    67    34    65    1
    68    35    66    1
