@<TRIPOS>MOLECULE
ZINC000240934419
 37 39 0 0 0
SMALL
GASTEIGER

@<TRIPOS>ATOM
      1 O           0.0458    0.1499   -1.0835 O.2     1  UNL1       -0.2700
      2 C           0.0633    1.2072   -0.4835 C.2     1  UNL1        0.2474
      3 C           1.3410    1.9165   -0.2749 C.ar    1  UNL1        0.0446
      4 C           1.3986    3.3058   -0.3842 C.ar    1  UNL1       -0.0490
      5 C           2.5954    3.9636   -0.1877 C.ar    1  UNL1       -0.0610
      6 C           3.7438    3.2530    0.1182 C.ar    1  UNL1       -0.0611
      7 C           3.7058    1.8773    0.2306 C.ar    1  UNL1       -0.0533
      8 C           2.5071    1.1961    0.0413 C.ar    1  UNL1       -0.0058
      9 C           2.4617   -0.2803    0.1608 C.ar    1  UNL1       -0.0171
     10 C           1.5785   -0.8832    1.0557 C.ar    1  UNL1       -0.0535
     11 C           1.5409   -2.2584    1.1627 C.ar    1  UNL1       -0.0495
     12 C           2.3773   -3.0387    0.3847 C.ar    1  UNL1        0.0548
     13 C           2.3316   -4.5400    0.5067 C.3     1  UNL1        0.4174
     14 F           1.3958   -5.0531   -0.3979 F       1  UNL1       -0.1659
     15 F           3.5947   -5.0697    0.2217 F       1  UNL1       -0.1659
     16 F           1.9618   -4.8910    1.8095 F       1  UNL1       -0.1659
     17 C           3.2553   -2.4462   -0.5052 C.ar    1  UNL1       -0.0495
     18 C           3.2980   -1.0721   -0.6251 C.ar    1  UNL1       -0.0535
     19 N          -1.0847    1.7345   -0.0137 N.am    1  UNL1       -0.2925
     20 C          -1.4818    2.9854    0.6499 C.3     1  UNL1        0.0426
     21 C          -2.8811    2.7971    0.0477 C.3     1  UNL1        0.0866
     22 O          -3.0356    3.3515   -1.2603 O.3     1  UNL1       -0.3887
     23 C          -2.4925    1.3149    0.0550 C.3     1  UNL1        0.0426
     24 H           0.5068    3.8663   -0.6230 H       1  UNL1        0.0625
     25 H           2.6368    5.0394   -0.2735 H       1  UNL1        0.0618
     26 H           4.6753    3.7781    0.2697 H       1  UNL1        0.0618
     27 H           4.6057    1.3301    0.4695 H       1  UNL1        0.0624
     28 H           0.9255   -0.2750    1.6641 H       1  UNL1        0.0624
     29 H           0.8572   -2.7266    1.8554 H       1  UNL1        0.0623
     30 H           3.9057   -3.0604   -1.1103 H       1  UNL1        0.0623
     31 H           3.9838   -0.6107   -1.3202 H       1  UNL1        0.0624
     32 H          -1.4656    2.9236    1.7380 H       1  UNL1        0.0490
     33 H          -0.9600    3.8634    0.2692 H       1  UNL1        0.0490
     34 H          -3.6968    3.0540    0.7236 H       1  UNL1        0.0625
     35 H          -3.9181    3.2313   -1.6368 H       1  UNL1        0.2099
     36 H          -2.8298    0.7734   -0.8288 H       1  UNL1        0.0490
     37 H          -2.7449    0.8045    0.9845 H       1  UNL1        0.0490
@<TRIPOS>BOND
     1     1     2    2
     2     2     3    1
     3     2    19   am
     4     3     8   ar
     5     3     4   ar
     6     4     5   ar
     7     4    24    1
     8     5     6   ar
     9     5    25    1
    10     6     7   ar
    11     6    26    1
    12     7     8   ar
    13     7    27    1
    14     8     9    1
    15     9    18   ar
    16     9    10   ar
    17    10    11   ar
    18    10    28    1
    19    11    12   ar
    20    11    29    1
    21    12    13    1
    22    12    17   ar
    23    13    14    1
    24    13    15    1
    25    13    16    1
    26    17    18   ar
    27    17    30    1
    28    18    31    1
    29    19    23    1
    30    19    20    1
    31    20    21    1
    32    20    32    1
    33    20    33    1
    34    21    22    1
    35    21    23    1
    36    21    34    1
    37    22    35    1
    38    23    36    1
    39    23    37    1
