@<TRIPOS>MOLECULE
ZINC000156102730
 36 37 0 0 0
SMALL
GASTEIGER

@<TRIPOS>ATOM
      1 N          -2.0264    1.5000    0.9742 N.4     1  UNL1        0.2197
      2 H          -2.5699    1.8439    1.7517 H       1  UNL1        0.1995
      3 H          -2.0818    0.4930    0.9444 H       1  UNL1        0.1995
      4 H          -2.3903    1.8825    0.1143 H       1  UNL1        0.1995
      5 C          -0.6250    1.9089    1.1375 C.3     1  UNL1       -0.0177
      6 C          -0.0465    1.2563    2.3947 C.3     1  UNL1        0.0716
      7 H          -0.1737    0.1750    2.3429 H       1  UNL1        0.0533
      8 C          -0.7580    1.8090    3.6476 C.3     1  UNL1       -0.0295
      9 C           0.3955    1.9272    4.6785 C.3     1  UNL1       -0.0369
     10 C           1.5815    2.3414    3.7721 C.3     1  UNL1        0.0211
     11 N           1.3808    1.5866    2.5179 N.3     1  UNL1       -0.1685
     12 S           2.5660    1.1838    1.4337 S.O2    1  UNL1        0.0613
     13 O           1.9044    0.8541    0.2201 O.2     1  UNL1       -0.1528
     14 O           3.5574    2.1974    1.5280 O.2     1  UNL1       -0.1528
     15 C           3.3172   -0.3021    2.0104 C.ar    1  UNL1        0.1055
     16 C           4.4001   -0.2416    2.8675 C.ar    1  UNL1       -0.0348
     17 C           4.9894   -1.4073    3.3199 C.ar    1  UNL1       -0.0483
     18 C           4.4956   -2.6335    2.9155 C.ar    1  UNL1        0.0549
     19 C           5.1385   -3.9043    3.4083 C.3     1  UNL1        0.4174
     20 F           4.5199   -4.3097    4.5959 F       1  UNL1       -0.1659
     21 F           4.9937   -4.9054    2.4418 F       1  UNL1       -0.1659
     22 F           6.4986   -3.6776    3.6448 F       1  UNL1       -0.1659
     23 C           3.4119   -2.6940    2.0595 C.ar    1  UNL1       -0.0483
     24 C           2.8202   -1.5283    1.6101 C.ar    1  UNL1       -0.0348
     25 H          -0.0504    1.5926    0.2668 H       1  UNL1        0.0829
     26 H          -0.5717    2.9933    1.2336 H       1  UNL1        0.0829
     27 H          -1.1945    2.7867    3.4435 H       1  UNL1        0.0283
     28 H          -1.5187    1.1115    3.9983 H       1  UNL1        0.0283
     29 H           0.1810    2.6987    5.4181 H       1  UNL1        0.0279
     30 H           0.5883    0.9689    5.1606 H       1  UNL1        0.0279
     31 H           1.5550    3.4139    3.5792 H       1  UNL1        0.0444
     32 H           2.5280    2.0615    4.2344 H       1  UNL1        0.0444
     33 H           4.7858    0.7164    3.1834 H       1  UNL1        0.0637
     34 H           5.8359   -1.3600    3.9889 H       1  UNL1        0.0624
     35 H           3.0259   -3.6520    1.7439 H       1  UNL1        0.0624
     36 H           1.9735   -1.5756    0.9414 H       1  UNL1        0.0637
@<TRIPOS>UNITY_ATOM_ATTR
1 1
charge 1
@<TRIPOS>BOND
     1     1     2    1
     2     1     3    1
     3     1     4    1
     4     1     5    1
     5     5     6    1
     6     5    25    1
     7     5    26    1
     8     6     7    1
     9     6    11    1
    10     6     8    1
    11     8     9    1
    12     8    27    1
    13     8    28    1
    14     9    10    1
    15     9    29    1
    16     9    30    1
    17    10    11    1
    18    10    31    1
    19    10    32    1
    20    12    11    1
    21    12    13    2
    22    12    14    2
    23    12    15    1
    24    15    24   ar
    25    15    16   ar
    26    16    17   ar
    27    16    33    1
    28    17    18   ar
    29    17    34    1
    30    18    19    1
    31    18    23   ar
    32    19    20    1
    33    19    21    1
    34    19    22    1
    35    23    24   ar
    36    23    35    1
    37    24    36    1
