@<TRIPOS>MOLECULE
ZINC000004454906
 48 49 0 0 0
SMALL
GASTEIGER

@<TRIPOS>ATOM
      1 C          -0.0543    1.5401    0.0457 C.3     1  UNL1       -0.0507
      2 C          -0.0384    0.0102    0.0372 C.3     1  UNL1        0.0177
      3 N           0.6776   -0.4773    1.2188 N.3     1  UNL1       -0.1771
      4 C          -0.0300   -0.6316    2.4922 C.3     1  UNL1        0.0177
      5 C          -0.7213   -1.9960    2.5294 C.3     1  UNL1       -0.0507
      6 S           2.2869   -0.8538    1.1149 S.O2    1  UNL1        0.0609
      7 O           2.5525   -1.7731    2.1654 O.2     1  UNL1       -0.1528
      8 O           2.5443   -1.1409   -0.2528 O.2     1  UNL1       -0.1528
      9 C           3.1907    0.6103    1.4946 C.ar    1  UNL1        0.1075
     10 C           3.5355    1.4890    0.4848 C.ar    1  UNL1       -0.0318
     11 C           4.2448    2.6397    0.7766 C.ar    1  UNL1       -0.0163
     12 C           4.6118    2.9146    2.0837 C.ar    1  UNL1        0.1413
     13 O           5.3089    4.0458    2.3723 O.3     1  UNL1       -0.4933
     14 C           5.6296    4.9072    1.2781 C.3     1  UNL1        0.0789
     15 C           4.2646    2.0293    3.1020 C.ar    1  UNL1        0.0775
     16 N           4.6327    2.3023    4.4261 N.am    1  UNL1       -0.2804
     17 C           4.7582    1.2945    5.3122 C.2     1  UNL1        0.2462
     18 O           4.6513    0.1445    4.9418 O.2     1  UNL1       -0.2726
     19 C           5.0314    1.5965    6.7631 C.3     1  UNL1        0.1347
     20 H           5.9289    2.2076    6.8593 H       1  UNL1        0.0693
     21 C           3.8178    2.3195    7.3997 C.3     1  UNL1       -0.0159
     22 C           4.0079    1.9522    8.8967 C.3     1  UNL1       -0.0266
     23 C           4.6021    0.5299    8.8122 C.3     1  UNL1        0.0487
     24 O           5.1767    0.3766    7.5075 O.3     1  UNL1       -0.3673
     25 C           3.5483    0.8801    2.8024 C.ar    1  UNL1       -0.0105
     26 H           0.9694    1.9142    0.0302 H       1  UNL1        0.0243
     27 H          -0.5870    1.9028   -0.8333 H       1  UNL1        0.0243
     28 H          -0.5566    1.8932    0.9463 H       1  UNL1        0.0243
     29 H          -1.0620   -0.3639    0.0527 H       1  UNL1        0.0441
     30 H           0.4640   -0.3429   -0.8634 H       1  UNL1        0.0441
     31 H           0.6822   -0.5627    3.3144 H       1  UNL1        0.0441
     32 H          -0.7764    0.1566    2.5910 H       1  UNL1        0.0441
     33 H          -1.4336   -2.0650    1.7072 H       1  UNL1        0.0243
     34 H           0.0250   -2.7843    2.4306 H       1  UNL1        0.0243
     35 H          -1.2479   -2.1109    3.4768 H       1  UNL1        0.0243
     36 H           3.2505    1.2762   -0.5350 H       1  UNL1        0.0638
     37 H           4.5130    3.3240   -0.0147 H       1  UNL1        0.0655
     38 H           6.2385    4.3645    0.5549 H       1  UNL1        0.0660
     39 H           4.7102    5.2438    0.7991 H       1  UNL1        0.0660
     40 H           6.1849    5.7701    1.6457 H       1  UNL1        0.0660
     41 H           4.7973    3.2167    4.7051 H       1  UNL1        0.1550
     42 H           3.8792    3.3973    7.2488 H       1  UNL1        0.0296
     43 H           2.8782    1.9236    7.0143 H       1  UNL1        0.0296
     44 H           4.7064    2.6365    9.3784 H       1  UNL1        0.0288
     45 H           3.0508    1.9424    9.4183 H       1  UNL1        0.0288
     46 H           5.3742    0.4060    9.5716 H       1  UNL1        0.0560
     47 H           3.8147   -0.2092    8.9597 H       1  UNL1        0.0560
     48 H           3.2772    0.1920    3.5894 H       1  UNL1        0.0657
@<TRIPOS>BOND
     1     1     2    1
     2     1    26    1
     3     1    27    1
     4     1    28    1
     5     2     3    1
     6     2    29    1
     7     2    30    1
     8     3     4    1
     9     6     3    1
    10     4     5    1
    11     4    31    1
    12     4    32    1
    13     5    33    1
    14     5    34    1
    15     5    35    1
    16     6     7    2
    17     6     8    2
    18     6     9    1
    19     9    25   ar
    20     9    10   ar
    21    10    11   ar
    22    10    36    1
    23    11    12   ar
    24    11    37    1
    25    12    13    1
    26    12    15   ar
    27    13    14    1
    28    14    38    1
    29    14    39    1
    30    14    40    1
    31    15    16    1
    32    15    25   ar
    33    16    17   am
    34    16    41    1
    35    17    18    2
    36    17    19    1
    37    19    20    1
    38    19    24    1
    39    19    21    1
    40    21    22    1
    41    21    42    1
    42    21    43    1
    43    22    23    1
    44    22    44    1
    45    22    45    1
    46    23    24    1
    47    23    46    1
    48    23    47    1
    49    25    48    1
