@<TRIPOS>MOLECULE
ZINC000012605287
 52 54 0 0 0
SMALL
GASTEIGER

@<TRIPOS>ATOM
      1 C           0.2576    1.4816    0.4590 C.3     1  UNL1       -0.0507
      2 C           0.2071   -0.0438    0.3516 C.3     1  UNL1        0.0177
      3 N          -1.1804   -0.4744    0.1629 N.3     1  UNL1       -0.1771
      4 C          -1.7629   -0.5008   -1.1811 C.3     1  UNL1        0.0177
      5 C          -1.4134   -1.8254   -1.8624 C.3     1  UNL1       -0.0507
      6 S          -2.0904   -0.9314    1.4689 S.O2    1  UNL1        0.0608
      7 O          -3.1131   -1.7812    0.9677 O.2     1  UNL1       -0.1528
      8 O          -1.1726   -1.3310    2.4774 O.2     1  UNL1       -0.1528
      9 C          -2.8965    0.5138    2.0741 C.ar    1  UNL1        0.1056
     10 C          -2.2793    1.2986    3.0308 C.ar    1  UNL1       -0.0336
     11 C          -2.9085    2.4320    3.5073 C.ar    1  UNL1       -0.0386
     12 C          -4.1622    2.7833    3.0243 C.ar    1  UNL1        0.0335
     13 N          -4.8022    3.9312    3.5046 N.am    1  UNL1       -0.2855
     14 C          -4.0755    5.0093    3.8595 C.2     1  UNL1        0.2175
     15 O          -2.8770    5.0208    3.6736 O.2     1  UNL1       -0.2755
     16 C          -4.7520    6.2006    4.4875 C.3     1  UNL1        0.0282
     17 C          -3.7089    7.2778    4.7916 C.3     1  UNL1       -0.0193
     18 C          -4.3854    8.4690    5.4195 C.ar    1  UNL1       -0.0432
     19 C          -4.8731    9.4857    4.6203 C.ar    1  UNL1       -0.0549
     20 C          -5.4947   10.5808    5.1917 C.ar    1  UNL1       -0.0159
     21 C          -5.6295   10.6615    6.5678 C.ar    1  UNL1        0.1662
     22 O          -6.1897   11.6147    7.3682 O.3     1  UNL1       -0.4526
     23 C          -6.4008   10.9734    8.6400 C.3     1  UNL1        0.2332
     24 O          -5.3904    9.9483    8.6782 O.3     1  UNL1       -0.4526
     25 C          -5.1379    9.6367    7.3734 C.ar    1  UNL1        0.1665
     26 C          -4.5220    8.5399    6.7937 C.ar    1  UNL1       -0.0130
     27 C          -4.7792    1.9933    2.0632 C.ar    1  UNL1       -0.0386
     28 C          -4.1426    0.8638    1.5873 C.ar    1  UNL1       -0.0336
     29 H           1.2899    1.8020    0.5994 H       1  UNL1        0.0243
     30 H          -0.1389    1.9235   -0.4551 H       1  UNL1        0.0243
     31 H          -0.3423    1.8060    1.3093 H       1  UNL1        0.0243
     32 H           0.8070   -0.3682   -0.4987 H       1  UNL1        0.0441
     33 H           0.6036   -0.4857    1.2657 H       1  UNL1        0.0441
     34 H          -2.8462   -0.4038   -1.1095 H       1  UNL1        0.0441
     35 H          -1.3619    0.3261   -1.7671 H       1  UNL1        0.0441
     36 H          -1.8144   -2.6524   -1.2763 H       1  UNL1        0.0243
     37 H          -1.8468   -1.8451   -2.8624 H       1  UNL1        0.0243
     38 H          -0.3301   -1.9225   -1.9340 H       1  UNL1        0.0243
     39 H          -1.3043    1.0248    3.4060 H       1  UNL1        0.0638
     40 H          -2.4262    3.0441    4.2550 H       1  UNL1        0.0637
     41 H          -5.7689    3.9510    3.5821 H       1  UNL1        0.1548
     42 H          -5.4968    6.6000    3.7992 H       1  UNL1        0.0362
     43 H          -5.2396    5.8953    5.4133 H       1  UNL1        0.0362
     44 H          -2.9641    6.8783    5.4799 H       1  UNL1        0.0318
     45 H          -3.2213    7.5831    3.8658 H       1  UNL1        0.0318
     46 H          -4.7682    9.4249    3.5471 H       1  UNL1        0.0621
     47 H          -5.8749   11.3738    4.5648 H       1  UNL1        0.0655
     48 H          -6.2576   11.6828    9.4551 H       1  UNL1        0.1166
     49 H          -7.3963   10.5318    8.6857 H       1  UNL1        0.1166
     50 H          -4.1453    7.7412    7.4155 H       1  UNL1        0.0658
     51 H          -5.7542    2.2638    1.6856 H       1  UNL1        0.0637
     52 H          -4.6219    0.2489    0.8399 H       1  UNL1        0.0638
@<TRIPOS>BOND
     1     1     2    1
     2     1    29    1
     3     1    30    1
     4     1    31    1
     5     2     3    1
     6     2    32    1
     7     2    33    1
     8     3     4    1
     9     6     3    1
    10     4     5    1
    11     4    34    1
    12     4    35    1
    13     5    36    1
    14     5    37    1
    15     5    38    1
    16     6     7    2
    17     6     8    2
    18     6     9    1
    19     9    28   ar
    20     9    10   ar
    21    10    11   ar
    22    10    39    1
    23    11    12   ar
    24    11    40    1
    25    12    13    1
    26    12    27   ar
    27    13    14   am
    28    13    41    1
    29    14    15    2
    30    14    16    1
    31    16    17    1
    32    16    42    1
    33    16    43    1
    34    17    18    1
    35    17    44    1
    36    17    45    1
    37    18    26   ar
    38    18    19   ar
    39    19    20   ar
    40    19    46    1
    41    20    21   ar
    42    20    47    1
    43    21    25   ar
    44    21    22    1
    45    22    23    1
    46    23    24    1
    47    23    48    1
    48    23    49    1
    49    24    25    1
    50    25    26   ar
    51    26    50    1
    52    27    28   ar
    53    27    51    1
    54    28    52    1
