@<TRIPOS>MOLECULE
ZINC000015364142
 45 47 0 0 0
SMALL
GASTEIGER

@<TRIPOS>ATOM
      1 C          -0.0184    1.5028    0.0103 C.3     1  UNL1       -0.0334
      2 C           0.0021   -0.0041    0.0020 C.ar    1  UNL1       -0.0114
      3 C          -1.0773   -0.7877    0.0028 C.ar    1  UNL1       -0.0499
      4 C          -0.8118   -2.1462   -0.0063 C.ar    1  UNL1       -0.0278
      5 C           0.4832   -2.4658   -0.0145 C.ar    1  UNL1        0.1429
      6 S           1.1244   -4.1069   -0.0280 S.O2    1  UNL1        0.0672
      7 O           2.4370   -4.0293    0.5108 O.2     1  UNL1       -0.1523
      8 O           0.1090   -4.9389    0.5160 O.2     1  UNL1       -0.1523
      9 N           1.2953   -4.5534   -1.6135 N.3     1  UNL1       -0.1736
     10 C           0.1921   -5.2099   -2.3288 C.3     1  UNL1        0.0350
     11 C          -0.1201   -4.4028   -3.5950 C.3     1  UNL1        0.0349
     12 N           1.1374   -4.1492   -4.3121 N.3     1  UNL1       -0.1740
     13 S           1.3079   -4.5946   -5.8979 S.O2    1  UNL1        0.0609
     14 O           2.7029   -4.7397   -6.1262 O.2     1  UNL1       -0.1528
     15 O           0.3707   -5.6384   -6.1245 O.2     1  UNL1       -0.1528
     16 C           0.7818   -3.2312   -6.8822 C.ar    1  UNL1        0.1055
     17 C          -0.5428   -3.1238   -7.2627 C.ar    1  UNL1       -0.0348
     18 C          -0.9556   -2.0541   -8.0349 C.ar    1  UNL1       -0.0483
     19 C          -0.0438   -1.0916   -8.4262 C.ar    1  UNL1        0.0549
     20 C          -0.4937    0.0743   -9.2684 C.3     1  UNL1        0.4174
     21 F          -0.8922    1.1252   -8.4353 F       1  UNL1       -0.1659
     22 F           0.5635    0.4983  -10.0807 F       1  UNL1       -0.1659
     23 F          -1.5702   -0.3182  -10.0712 F       1  UNL1       -0.1659
     24 C           1.2805   -1.1982   -8.0445 C.ar    1  UNL1       -0.0483
     25 C           1.6925   -2.2658   -7.2691 C.ar    1  UNL1       -0.0348
     26 C           2.2406   -3.4926   -3.5968 C.3     1  UNL1        0.0349
     27 C           2.5509   -4.2947   -2.3322 C.3     1  UNL1        0.0350
     28 S           1.4528   -0.9983   -0.0178 S.2     1  UNL1       -0.0738
     29 H           1.0042    1.8801    0.0026 H       1  UNL1        0.0283
     30 H          -0.5455    1.8639   -0.8728 H       1  UNL1        0.0283
     31 H          -0.5286    1.8543    0.9071 H       1  UNL1        0.0283
     32 H          -2.0823   -0.3923    0.0103 H       1  UNL1        0.0626
     33 H          -1.5939   -2.8910   -0.0065 H       1  UNL1        0.0643
     34 H           0.4859   -6.2229   -2.6038 H       1  UNL1        0.0457
     35 H          -0.6900   -5.2431   -1.6893 H       1  UNL1        0.0457
     36 H          -0.7970   -4.9708   -4.2332 H       1  UNL1        0.0457
     37 H          -0.5820   -3.4547   -3.3198 H       1  UNL1        0.0457
     38 H          -1.2551   -3.8759   -6.9571 H       1  UNL1        0.0637
     39 H          -1.9903   -1.9706   -8.3328 H       1  UNL1        0.0624
     40 H           1.9927   -0.4459   -8.3498 H       1  UNL1        0.0624
     41 H           2.7271   -2.3492   -6.9709 H       1  UNL1        0.0637
     42 H           3.1228   -3.4594   -4.2362 H       1  UNL1        0.0457
     43 H           1.9468   -2.4796   -3.3218 H       1  UNL1        0.0457
     44 H           3.2278   -3.7256   -1.6950 H       1  UNL1        0.0457
     45 H           3.0123   -5.2437   -2.6050 H       1  UNL1        0.0457
@<TRIPOS>BOND
     1     1     2    1
     2     1    29    1
     3     1    30    1
     4     1    31    1
     5     2    28   ar
     6     2     3   ar
     7     3     4   ar
     8     3    32    1
     9     4     5   ar
    10     4    33    1
    11     5     6    1
    12     5    28   ar
    13     6     7    2
    14     6     8    2
    15     6     9    1
    16     9    27    1
    17     9    10    1
    18    10    11    1
    19    10    34    1
    20    10    35    1
    21    11    12    1
    22    11    36    1
    23    11    37    1
    24    13    12    1
    25    12    26    1
    26    13    14    2
    27    13    15    2
    28    13    16    1
    29    16    25   ar
    30    16    17   ar
    31    17    18   ar
    32    17    38    1
    33    18    19   ar
    34    18    39    1
    35    19    20    1
    36    19    24   ar
    37    20    21    1
    38    20    22    1
    39    20    23    1
    40    24    25   ar
    41    24    40    1
    42    25    41    1
    43    26    27    1
    44    26    42    1
    45    26    43    1
    46    27    44    1
    47    27    45    1
