@<TRIPOS>MOLECULE
ZINC000028207223
 47 48 0 0 0
SMALL
GASTEIGER

@<TRIPOS>ATOM
      1 C          -1.1906   -0.8907   -0.2831 C.3     1  UNL1       -0.0613
      2 C           0.0067    0.0164    0.0077 C.3     1  UNL1       -0.0305
      3 C           0.7345   -0.4878    1.2271 C.ar    1  UNL1       -0.0475
      4 C           0.3732   -0.0348    2.4827 C.ar    1  UNL1       -0.0568
      5 C           1.0383   -0.4950    3.6023 C.ar    1  UNL1       -0.0402
      6 C           2.0706   -1.4140    3.4661 C.ar    1  UNL1        0.0335
      7 N           2.7461   -1.8825    4.5984 N.am    1  UNL1       -0.2827
      8 C           2.0854   -2.0315    5.7636 C.2     1  UNL1        0.2548
      9 O           0.8868   -1.8516    5.8085 O.2     1  UNL1       -0.2717
     10 C           2.8360   -2.4215    7.0108 C.3     1  UNL1        0.1655
     11 O           1.9233   -2.5154    8.1063 O.3     1  UNL1       -0.4828
     12 C           2.4423   -2.8603    9.3140 C.ar    1  UNL1        0.1213
     13 C           3.8031   -3.0977    9.4433 C.ar    1  UNL1       -0.0181
     14 C           4.3283   -3.4476   10.6721 C.ar    1  UNL1       -0.0319
     15 C           3.4990   -3.5617   11.7726 C.ar    1  UNL1        0.1057
     16 S           4.1720   -4.0088   13.3384 S.O2    1  UNL1        0.0604
     17 O           3.1045   -4.5729   14.0877 O.2     1  UNL1       -0.1529
     18 O           5.3845   -4.7001   13.0714 O.2     1  UNL1       -0.1529
     19 N           4.5940   -2.6053   14.1094 N.3     1  UNL1       -0.1827
     20 C           3.6233   -1.9199   14.9663 C.3     1  UNL1        0.0086
     21 C           5.9379   -2.0490   13.9346 C.3     1  UNL1        0.0086
     22 C           2.1426   -3.3252   11.6465 C.ar    1  UNL1       -0.0319
     23 C           1.6132   -2.9699   10.4209 C.ar    1  UNL1       -0.0181
     24 C           2.4307   -1.8673    2.2038 C.ar    1  UNL1       -0.0402
     25 C           1.7584   -1.4068    1.0886 C.ar    1  UNL1       -0.0568
     26 H          -1.8667   -0.8852    0.5718 H       1  UNL1        0.0233
     27 H          -1.7170   -0.5260   -1.1651 H       1  UNL1        0.0233
     28 H          -0.8409   -1.9073   -0.4632 H       1  UNL1        0.0233
     29 H           0.6828    0.0109   -0.8472 H       1  UNL1        0.0311
     30 H          -0.3430    1.0330    0.1878 H       1  UNL1        0.0311
     31 H          -0.4296    0.6798    2.5880 H       1  UNL1        0.0621
     32 H           0.7562   -0.1403    4.5826 H       1  UNL1        0.0636
     33 H           3.6898   -2.1001    4.5446 H       1  UNL1        0.1549
     34 H           3.3196   -3.3862    6.8571 H       1  UNL1        0.0795
     35 H           3.5916   -1.6673    7.2310 H       1  UNL1        0.0795
     36 H           4.4511   -3.0093    8.5839 H       1  UNL1        0.0655
     37 H           5.3876   -3.6325   10.7732 H       1  UNL1        0.0638
     38 H           3.7123   -2.2928   15.9866 H       1  UNL1        0.0408
     39 H           3.8200   -0.8479   14.9528 H       1  UNL1        0.0408
     40 H           2.6154   -2.1091   14.5970 H       1  UNL1        0.0408
     41 H           6.5132   -2.6915   13.2679 H       1  UNL1        0.0408
     42 H           5.8647   -1.0507   13.5032 H       1  UNL1        0.0408
     43 H           6.4359   -1.9910   14.9024 H       1  UNL1        0.0408
     44 H           1.4970   -3.4147   12.5076 H       1  UNL1        0.0638
     45 H           0.5537   -2.7852   10.3229 H       1  UNL1        0.0655
     46 H           3.2330   -2.5819    2.0946 H       1  UNL1        0.0636
     47 H           2.0380   -1.7590    0.1066 H       1  UNL1        0.0621
@<TRIPOS>BOND
     1     1     2    1
     2     1    26    1
     3     1    27    1
     4     1    28    1
     5     2     3    1
     6     2    29    1
     7     2    30    1
     8     3    25   ar
     9     3     4   ar
    10     4     5   ar
    11     4    31    1
    12     5     6   ar
    13     5    32    1
    14     6     7    1
    15     6    24   ar
    16     7     8   am
    17     7    33    1
    18     8     9    2
    19     8    10    1
    20    10    11    1
    21    10    34    1
    22    10    35    1
    23    11    12    1
    24    12    23   ar
    25    12    13   ar
    26    13    14   ar
    27    13    36    1
    28    14    15   ar
    29    14    37    1
    30    15    16    1
    31    15    22   ar
    32    16    17    2
    33    16    18    2
    34    16    19    1
    35    19    20    1
    36    19    21    1
    37    20    38    1
    38    20    39    1
    39    20    40    1
    40    21    41    1
    41    21    42    1
    42    21    43    1
    43    22    23   ar
    44    22    44    1
    45    23    45    1
    46    24    25   ar
    47    24    46    1
    48    25    47    1
