@<TRIPOS>MOLECULE
ZINC000009806695
 51 53 0 0 0
SMALL
GASTEIGER

@<TRIPOS>ATOM
      1 C           0.4684    1.8000    0.3563 C.3     1  UNL1        0.0788
      2 O           0.5036    0.3750    0.2551 O.3     1  UNL1       -0.4951
      3 C           1.0324   -0.3053    1.3060 C.ar    1  UNL1        0.1202
      4 C           1.5024    0.3841    2.4143 C.ar    1  UNL1       -0.0181
      5 C           2.0391   -0.3097    3.4815 C.ar    1  UNL1       -0.0319
      6 C           2.1084   -1.6902    3.4455 C.ar    1  UNL1        0.1057
      7 S           2.7940   -2.5722    4.8081 S.O2    1  UNL1        0.0611
      8 O           3.2355   -3.8220    4.2958 O.2     1  UNL1       -0.1528
      9 O           3.6512   -1.6628    5.4843 O.2     1  UNL1       -0.1528
     10 N           1.5515   -2.9068    5.8505 N.3     1  UNL1       -0.1720
     11 C           1.1645   -2.0912    7.0160 C.3     1  UNL1        0.0209
     12 C          -0.3271   -2.4309    7.2600 C.3     1  UNL1       -0.0370
     13 C          -0.3603   -3.9456    6.9258 C.3     1  UNL1       -0.0330
     14 C           0.6477   -4.0632    5.7633 C.3     1  UNL1        0.0474
     15 H           0.1177   -4.0547    4.8109 H       1  UNL1        0.0495
     16 C           1.4510   -5.3581    5.9000 C.3     1  UNL1        0.0291
     17 N           0.5485   -6.5067    5.7884 N.am    1  UNL1       -0.3098
     18 C           1.0195   -7.7549    5.9796 C.2     1  UNL1        0.2441
     19 O           2.2087   -7.9356    6.1550 O.2     1  UNL1       -0.2702
     20 C           0.0898   -8.9045    5.9761 C.ar    1  UNL1        0.0367
     21 C          -1.2572   -8.7156    5.6627 C.ar    1  UNL1       -0.0491
     22 C          -2.1193   -9.7926    5.6608 C.ar    1  UNL1       -0.0494
     23 C          -1.6515  -11.0577    5.9691 C.ar    1  UNL1        0.0549
     24 C          -2.5991  -12.2295    5.9655 C.3     1  UNL1        0.4174
     25 F          -2.6256  -12.8039    4.6901 F       1  UNL1       -0.1659
     26 F          -2.1682  -13.1806    6.8965 F       1  UNL1       -0.1659
     27 F          -3.8834  -11.7916    6.3065 F       1  UNL1       -0.1659
     28 C          -0.3174  -11.2518    6.2802 C.ar    1  UNL1       -0.0494
     29 C           0.5564  -10.1842    6.2806 C.ar    1  UNL1       -0.0491
     30 C           1.6401   -2.3797    2.3423 C.ar    1  UNL1       -0.0319
     31 C           1.0978   -1.6907    1.2748 C.ar    1  UNL1       -0.0181
     32 H           1.4831    2.1812    0.4712 H       1  UNL1        0.0660
     33 H           0.0236    2.2175   -0.5470 H       1  UNL1        0.0660
     34 H          -0.1282    2.0882    1.2218 H       1  UNL1        0.0660
     35 H           1.4492    1.4625    2.4426 H       1  UNL1        0.0655
     36 H           2.4051    0.2265    4.3445 H       1  UNL1        0.0638
     37 H           1.7628   -2.3638    7.8853 H       1  UNL1        0.0444
     38 H           1.2803   -1.0307    6.7921 H       1  UNL1        0.0444
     39 H          -0.6030   -2.2540    8.2996 H       1  UNL1        0.0279
     40 H          -0.9715   -1.8676    6.5851 H       1  UNL1        0.0279
     41 H          -0.0370   -4.5368    7.7827 H       1  UNL1        0.0282
     42 H          -1.3563   -4.2473    6.6016 H       1  UNL1        0.0282
     43 H           2.1999   -5.4063    5.1095 H       1  UNL1        0.0478
     44 H           1.9459   -5.3779    6.8710 H       1  UNL1        0.0478
     45 H          -0.3881   -6.3689    5.5769 H       1  UNL1        0.1491
     46 H          -1.6237   -7.7285    5.4226 H       1  UNL1        0.0625
     47 H          -3.1618   -9.6479    5.4185 H       1  UNL1        0.0623
     48 H           0.0415  -12.2419    6.5196 H       1  UNL1        0.0623
     49 H           1.5976  -10.3371    6.5233 H       1  UNL1        0.0625
     50 H           1.6950   -3.4580    2.3167 H       1  UNL1        0.0638
     51 H           0.7322   -2.2298    0.4132 H       1  UNL1        0.0655
@<TRIPOS>BOND
     1     1     2    1
     2     1    32    1
     3     1    33    1
     4     1    34    1
     5     2     3    1
     6     3    31   ar
     7     3     4   ar
     8     4     5   ar
     9     4    35    1
    10     5     6   ar
    11     5    36    1
    12     6     7    1
    13     6    30   ar
    14     7     8    2
    15     7     9    2
    16     7    10    1
    17    10    14    1
    18    10    11    1
    19    11    12    1
    20    11    37    1
    21    11    38    1
    22    12    13    1
    23    12    39    1
    24    12    40    1
    25    13    14    1
    26    13    41    1
    27    13    42    1
    28    14    15    1
    29    14    16    1
    30    16    17    1
    31    16    43    1
    32    16    44    1
    33    17    18   am
    34    17    45    1
    35    18    19    2
    36    18    20    1
    37    20    29   ar
    38    20    21   ar
    39    21    22   ar
    40    21    46    1
    41    22    23   ar
    42    22    47    1
    43    23    24    1
    44    23    28   ar
    45    24    25    1
    46    24    26    1
    47    24    27    1
    48    28    29   ar
    49    28    48    1
    50    29    49    1
    51    30    31   ar
    52    30    50    1
    53    31    51    1
