@<TRIPOS>MOLECULE
ZINC000032909193
 44 46 0 0 0
SMALL
GASTEIGER

@<TRIPOS>ATOM
      1 C          -0.0327    1.5081   -0.0330 C.3     1  UNL1       -0.0334
      2 C          -0.0087    0.0013   -0.0309 C.ar    1  UNL1       -0.0114
      3 C          -1.0863   -0.7849   -0.0242 C.ar    1  UNL1       -0.0499
      4 C          -0.8176   -2.1428   -0.0241 C.ar    1  UNL1       -0.0278
      5 C           0.4782   -2.4594   -0.0306 C.ar    1  UNL1        0.1429
      6 S           1.1232   -4.0990   -0.0330 S.O2    1  UNL1        0.0678
      7 O           2.4359   -4.0147    0.5046 O.2     1  UNL1       -0.1523
      8 O           0.1099   -4.9297    0.5171 O.2     1  UNL1       -0.1523
      9 N           1.2945   -4.5561   -1.6155 N.3     1  UNL1       -0.1642
     10 C           0.2663   -5.2260   -2.4324 C.3     1  UNL1        0.0214
     11 C           0.6348   -4.8789   -3.8965 C.3     1  UNL1       -0.0366
     12 C           2.1851   -4.9152   -3.8444 C.3     1  UNL1       -0.0260
     13 C           2.4949   -4.3552   -2.4402 C.3     1  UNL1        0.1081
     14 H           2.7304   -3.2931   -2.5084 H       1  UNL1        0.0576
     15 C           3.6575   -5.1000   -1.8365 C.2     1  UNL1        0.2361
     16 O           3.5086   -5.7262   -0.8085 O.2     1  UNL1       -0.2737
     17 N           4.8628   -5.0702   -2.4388 N.am    1  UNL1       -0.2842
     18 C           5.9648   -5.6802   -1.8292 C.ar    1  UNL1        0.0335
     19 C           7.2281   -5.1164   -1.9516 C.ar    1  UNL1       -0.0399
     20 C           8.3137   -5.7209   -1.3487 C.ar    1  UNL1       -0.0484
     21 C           8.1439   -6.8865   -0.6244 C.ar    1  UNL1        0.0549
     22 C           9.3309   -7.5437    0.0317 C.3     1  UNL1        0.4174
     23 F           9.4874   -7.0378    1.3266 F       1  UNL1       -0.1659
     24 F           9.1238   -8.9260    0.0929 F       1  UNL1       -0.1659
     25 F          10.4833   -7.2775   -0.7154 F       1  UNL1       -0.1659
     26 C           6.8873   -7.4502   -0.5003 C.ar    1  UNL1       -0.0484
     27 C           5.7967   -6.8474   -1.0959 C.ar    1  UNL1       -0.0399
     28 S           1.4443   -0.9897   -0.0444 S.2     1  UNL1       -0.0738
     29 H           0.9890    1.8877   -0.0438 H       1  UNL1        0.0283
     30 H          -0.5611    1.8618   -0.9183 H       1  UNL1        0.0283
     31 H          -0.5433    1.8646    0.8616 H       1  UNL1        0.0283
     32 H          -2.0922   -0.3918   -0.0190 H       1  UNL1        0.0626
     33 H          -1.5980   -2.8894   -0.0187 H       1  UNL1        0.0643
     34 H           0.3021   -6.3044   -2.2777 H       1  UNL1        0.0444
     35 H          -0.7233   -4.8395   -2.1885 H       1  UNL1        0.0444
     36 H           0.2494   -5.6308   -4.5851 H       1  UNL1        0.0279
     37 H           0.2760   -3.8852   -4.1646 H       1  UNL1        0.0279
     38 H           2.5506   -5.9371   -3.9453 H       1  UNL1        0.0286
     39 H           2.6119   -4.2739   -4.6156 H       1  UNL1        0.0286
     40 H           4.9664   -4.6260   -3.2949 H       1  UNL1        0.1549
     41 H           7.3614   -4.2065   -2.5178 H       1  UNL1        0.0636
     42 H           9.2964   -5.2830   -1.4435 H       1  UNL1        0.0624
     43 H           6.7580   -8.3606    0.0661 H       1  UNL1        0.0624
     44 H           4.8155   -7.2881   -0.9987 H       1  UNL1        0.0636
@<TRIPOS>BOND
     1     1     2    1
     2     1    29    1
     3     1    30    1
     4     1    31    1
     5     2    28   ar
     6     2     3   ar
     7     3     4   ar
     8     3    32    1
     9     4     5   ar
    10     4    33    1
    11     5     6    1
    12     5    28   ar
    13     6     7    2
    14     6     8    2
    15     6     9    1
    16     9    13    1
    17     9    10    1
    18    10    11    1
    19    10    34    1
    20    10    35    1
    21    11    12    1
    22    11    36    1
    23    11    37    1
    24    12    13    1
    25    12    38    1
    26    12    39    1
    27    13    14    1
    28    13    15    1
    29    15    16    2
    30    15    17   am
    31    17    18    1
    32    17    40    1
    33    18    27   ar
    34    18    19   ar
    35    19    20   ar
    36    19    41    1
    37    20    21   ar
    38    20    42    1
    39    21    22    1
    40    21    26   ar
    41    22    23    1
    42    22    24    1
    43    22    25    1
    44    26    27   ar
    45    26    43    1
    46    27    44    1
