@<TRIPOS>MOLECULE
ZINC000014182802
 43 44 0 0 0
SMALL
GASTEIGER

@<TRIPOS>ATOM
      1 C          -0.0225    1.8097    0.0120 C.3     1  UNL1        0.0707
      2 S           0.0021   -0.0041    0.0020 S.O2    1  UNL1        0.0290
      3 O           0.8448   -0.4970    1.0346 O.2     1  UNL1       -0.1583
      4 O          -1.3093   -0.5195   -0.1821 O.2     1  UNL1       -0.1583
      5 N           0.7961   -0.3989   -1.3965 N.3     1  UNL1       -0.1813
      6 C           0.0550   -0.5829   -2.6518 C.3     1  UNL1        0.0208
      7 C           0.6756    0.3146   -3.7270 C.3     1  UNL1       -0.0274
      8 C           2.1732    0.0171   -3.8319 C.3     1  UNL1        0.0380
      9 C           2.7808    0.8741   -4.9124 C.2     1  UNL1        0.2165
     10 O           2.0848    1.6465   -5.5369 O.2     1  UNL1       -0.2755
     11 N           4.0975    0.7823   -5.1847 N.am    1  UNL1       -0.3110
     12 C           4.6882    1.6154   -6.2351 C.3     1  UNL1        0.0368
     13 C           6.1629    1.3227   -6.3386 C.ar    1  UNL1       -0.0303
     14 C           7.0651    2.0403   -5.5758 C.ar    1  UNL1       -0.0565
     15 C           8.4178    1.7719   -5.6708 C.ar    1  UNL1       -0.0498
     16 C           8.8682    0.7855   -6.5281 C.ar    1  UNL1        0.0548
     17 C          10.3430    0.4932   -6.6320 C.3     1  UNL1        0.4174
     18 F          10.6910   -0.4875   -5.6969 F       1  UNL1       -0.1659
     19 F          10.6378    0.0345   -7.9204 F       1  UNL1       -0.1659
     20 F          11.0691    1.6611   -6.3752 F       1  UNL1       -0.1659
     21 C           7.9658    0.0669   -7.2899 C.ar    1  UNL1       -0.0498
     22 C           6.6128    0.3328   -7.1921 C.ar    1  UNL1       -0.0565
     23 C           2.8511    0.3255   -2.4949 C.3     1  UNL1       -0.0274
     24 C           2.2558   -0.5658   -1.4070 C.3     1  UNL1        0.0208
     25 H           1.0001    2.1870    0.0043 H       1  UNL1        0.0479
     26 H          -0.5497    2.1708   -0.8711 H       1  UNL1        0.0479
     27 H          -0.5327    2.1613    0.9088 H       1  UNL1        0.0479
     28 H           0.1188   -1.6252   -2.9643 H       1  UNL1        0.0444
     29 H          -0.9890   -0.3070   -2.5035 H       1  UNL1        0.0444
     30 H           0.1974    0.1169   -4.6863 H       1  UNL1        0.0285
     31 H           0.5305    1.3604   -3.4562 H       1  UNL1        0.0285
     32 H           2.3181   -1.0347   -4.0782 H       1  UNL1        0.0395
     33 H           4.6542    0.1645   -4.6852 H       1  UNL1        0.1490
     34 H           4.2063    1.3950   -7.1876 H       1  UNL1        0.0512
     35 H           4.5429    2.6673   -5.9892 H       1  UNL1        0.0512
     36 H           6.7133    2.8110   -4.9060 H       1  UNL1        0.0621
     37 H           9.1228    2.3331   -5.0754 H       1  UNL1        0.0623
     38 H           8.3177   -0.7040   -7.9594 H       1  UNL1        0.0623
     39 H           5.9078   -0.2286   -7.7872 H       1  UNL1        0.0621
     40 H           3.9213    0.1358   -2.5774 H       1  UNL1        0.0285
     41 H           2.6855    1.3712   -2.2357 H       1  UNL1        0.0285
     42 H           2.6644   -0.2814   -0.4374 H       1  UNL1        0.0444
     43 H           2.4970   -1.6081   -1.6160 H       1  UNL1        0.0444
@<TRIPOS>BOND
     1     1     2    1
     2     1    25    1
     3     1    26    1
     4     1    27    1
     5     2     3    2
     6     2     4    2
     7     2     5    1
     8     5    24    1
     9     5     6    1
    10     6     7    1
    11     6    28    1
    12     6    29    1
    13     7     8    1
    14     7    30    1
    15     7    31    1
    16     8     9    1
    17     8    23    1
    18     8    32    1
    19     9    10    2
    20     9    11   am
    21    11    12    1
    22    11    33    1
    23    12    13    1
    24    12    34    1
    25    12    35    1
    26    13    22   ar
    27    13    14   ar
    28    14    15   ar
    29    14    36    1
    30    15    16   ar
    31    15    37    1
    32    16    17    1
    33    16    21   ar
    34    17    18    1
    35    17    19    1
    36    17    20    1
    37    21    22   ar
    38    21    38    1
    39    22    39    1
    40    23    24    1
    41    23    40    1
    42    23    41    1
    43    24    42    1
    44    24    43    1
