@<TRIPOS>MOLECULE
ZINC000002960121
 53 54 0 0 0
SMALL
GASTEIGER

@<TRIPOS>ATOM
      1 C          -0.0187    1.5258    0.0104 C.3     1  UNL1       -0.0636
      2 C           0.0021   -0.0041    0.0020 C.3     1  UNL1       -0.0376
      3 C          -1.4333   -0.5336    0.0129 C.3     1  UNL1        0.0201
      4 H          -1.9862   -0.1019   -0.8214 H       1  UNL1        0.0495
      5 C          -1.4157   -2.0577   -0.1212 C.3     1  UNL1       -0.0466
      6 N          -2.0815   -0.1618    1.2729 N.am    1  UNL1       -0.3116
      7 C          -3.4235   -0.0535    1.3341 C.2     1  UNL1        0.2290
      8 O          -4.0945   -0.2639    0.3460 O.2     1  UNL1       -0.2743
      9 C          -4.0903    0.3291    2.6303 C.3     1  UNL1        0.0971
     10 N          -5.5416    0.3788    2.4368 N.3     1  UNL1       -0.1635
     11 C          -6.3382   -0.8454    2.5510 C.3     1  UNL1        0.0460
     12 C          -6.6846   -1.0862    3.9978 C.ar    1  UNL1       -0.0317
     13 C          -5.8378   -1.8319    4.7964 C.ar    1  UNL1       -0.0573
     14 C          -6.1555   -2.0528    6.1235 C.ar    1  UNL1       -0.0615
     15 C          -7.3198   -1.5275    6.6521 C.ar    1  UNL1       -0.0617
     16 C          -8.1662   -0.7810    5.8537 C.ar    1  UNL1       -0.0615
     17 C          -7.8463   -0.5566    4.5277 C.ar    1  UNL1       -0.0573
     18 S          -6.2817    1.8188    2.0890 S.O2    1  UNL1        0.0616
     19 O          -7.6359    1.6829    2.4977 O.2     1  UNL1       -0.1528
     20 O          -5.4217    2.8398    2.5758 O.2     1  UNL1       -0.1528
     21 C          -6.3055    1.9826    0.3348 C.ar    1  UNL1        0.1057
     22 C          -5.2508    2.5963   -0.3154 C.ar    1  UNL1       -0.0319
     23 C          -5.2670    2.7260   -1.6906 C.ar    1  UNL1       -0.0181
     24 C          -6.3426    2.2395   -2.4194 C.ar    1  UNL1        0.1202
     25 O          -6.3607    2.3655   -3.7724 O.3     1  UNL1       -0.4951
     26 C          -7.5000    1.8415   -4.4576 C.3     1  UNL1        0.0788
     27 C          -7.3994    1.6238   -1.7647 C.ar    1  UNL1       -0.0181
     28 C          -7.3762    1.4923   -0.3897 C.ar    1  UNL1       -0.0319
     29 H           1.0039    1.9031    0.0027 H       1  UNL1        0.0230
     30 H          -0.5459    1.8868   -0.8726 H       1  UNL1        0.0230
     31 H          -0.5289    1.8773    0.9072 H       1  UNL1        0.0230
     32 H           0.5123   -0.3556   -0.8948 H       1  UNL1        0.0280
     33 H           0.5293   -0.3651    0.8851 H       1  UNL1        0.0280
     34 H          -2.4383   -2.4349   -0.1135 H       1  UNL1        0.0247
     35 H          -0.9334   -2.3344   -1.0587 H       1  UNL1        0.0247
     36 H          -0.8628   -2.4894    0.7131 H       1  UNL1        0.0247
     37 H          -1.5448    0.0065    2.0632 H       1  UNL1        0.1490
     38 H          -3.8507   -0.4106    3.3943 H       1  UNL1        0.0539
     39 H          -3.7323    1.3084    2.9478 H       1  UNL1        0.0539
     40 H          -7.2547   -0.7380    1.9710 H       1  UNL1        0.0493
     41 H          -5.7637   -1.6896    2.1696 H       1  UNL1        0.0493
     42 H          -4.9281   -2.2423    4.3834 H       1  UNL1        0.0621
     43 H          -5.4943   -2.6360    6.7472 H       1  UNL1        0.0618
     44 H          -7.5684   -1.7007    7.6887 H       1  UNL1        0.0618
     45 H          -9.0760   -0.3710    6.2666 H       1  UNL1        0.0618
     46 H          -8.5075    0.0266    3.9040 H       1  UNL1        0.0621
     47 H          -4.4137    2.9749    0.2524 H       1  UNL1        0.0638
     48 H          -4.4433    3.2061   -2.1980 H       1  UNL1        0.0655
     49 H          -7.3876    2.0073   -5.5291 H       1  UNL1        0.0660
     50 H          -7.5817    0.7724   -4.2619 H       1  UNL1        0.0660
     51 H          -8.3998    2.3453   -4.1045 H       1  UNL1        0.0660
     52 H          -8.2380    1.2446   -2.3298 H       1  UNL1        0.0655
     53 H          -8.1985    1.0127    0.1204 H       1  UNL1        0.0638
@<TRIPOS>BOND
     1     1     2    1
     2     1    29    1
     3     1    30    1
     4     1    31    1
     5     2     3    1
     6     2    32    1
     7     2    33    1
     8     3     4    1
     9     3     5    1
    10     3     6    1
    11     5    34    1
    12     5    35    1
    13     5    36    1
    14     6     7   am
    15     6    37    1
    16     7     8    2
    17     7     9    1
    18     9    10    1
    19     9    38    1
    20     9    39    1
    21    10    11    1
    22    18    10    1
    23    11    12    1
    24    11    40    1
    25    11    41    1
    26    12    17   ar
    27    12    13   ar
    28    13    14   ar
    29    13    42    1
    30    14    15   ar
    31    14    43    1
    32    15    16   ar
    33    15    44    1
    34    16    17   ar
    35    16    45    1
    36    17    46    1
    37    18    19    2
    38    18    20    2
    39    18    21    1
    40    21    28   ar
    41    21    22   ar
    42    22    23   ar
    43    22    47    1
    44    23    24   ar
    45    23    48    1
    46    24    25    1
    47    24    27   ar
    48    25    26    1
    49    26    49    1
    50    26    50    1
    51    26    51    1
    52    27    28   ar
    53    27    52    1
    54    28    53    1
