@<TRIPOS>MOLECULE
ZINC000076066611
 43 43 0 0 0
SMALL
GASTEIGER

@<TRIPOS>ATOM
      1 C           2.2358   -1.0476   -0.8378 C.3     1  UNL1       -0.0415
      2 C           1.9195   -2.5076   -1.1681 C.3     1  UNL1        0.0457
      3 O           0.5475   -2.7765   -0.8725 O.3     1  UNL1       -0.3705
      4 C           0.1464   -4.1203   -1.1467 C.3     1  UNL1        0.1039
      5 H           0.7388   -4.5151   -1.9721 H       1  UNL1        0.0664
      6 C           0.3674   -4.9825    0.0977 C.3     1  UNL1       -0.0325
      7 C          -1.3134   -4.1425   -1.5204 C.ar    1  UNL1        0.1070
      8 N          -1.8132   -4.8075   -2.5067 N.ar    1  UNL1       -0.2447
      9 C          -3.1144   -4.7169   -2.6944 C.ar    1  UNL1        0.0660
     10 C          -3.8300   -5.4399   -3.8064 C.3     1  UNL1        0.0570
     11 N          -3.7625   -4.6399   -5.0318 N.am    1  UNL1       -0.2983
     12 C          -2.6465   -4.8201   -5.9637 C.3     1  UNL1        0.0036
     13 C          -4.7270   -3.7381   -5.3018 C.2     1  UNL1        0.2210
     14 O          -5.6133   -3.5391   -4.4983 O.2     1  UNL1       -0.2750
     15 C          -4.7041   -2.9769   -6.6023 C.3     1  UNL1        0.0388
     16 C          -6.0201   -2.2147   -6.7703 C.3     1  UNL1       -0.0517
     17 C          -3.5384   -1.9861   -6.5929 C.3     1  UNL1       -0.0517
     18 C          -4.5308   -3.9573   -7.7641 C.3     1  UNL1       -0.0517
     19 C          -3.7475   -3.9317   -1.8177 C.ar    1  UNL1        0.0003
     20 S          -2.5480   -3.2960   -0.6944 S.2     1  UNL1       -0.0777
     21 H           3.2823   -0.8425   -1.0632 H       1  UNL1        0.0252
     22 H           1.6005   -0.3940   -1.4355 H       1  UNL1        0.0252
     23 H           2.0499   -0.8661    0.2208 H       1  UNL1        0.0252
     24 H           2.1054   -2.6891   -2.2267 H       1  UNL1        0.0557
     25 H           2.5548   -3.1612   -0.5704 H       1  UNL1        0.0557
     26 H           0.0614   -6.0076   -0.1114 H       1  UNL1        0.0258
     27 H           1.4232   -4.9665    0.3680 H       1  UNL1        0.0258
     28 H          -0.2250   -4.5878    0.9231 H       1  UNL1        0.0258
     29 H          -3.3547   -6.4059   -3.9765 H       1  UNL1        0.0529
     30 H          -4.8730   -5.5919   -3.5287 H       1  UNL1        0.0529
     31 H          -2.8653   -5.6493   -6.6365 H       1  UNL1        0.0429
     32 H          -2.5071   -3.9082   -6.5443 H       1  UNL1        0.0429
     33 H          -1.7369   -5.0369   -5.4036 H       1  UNL1        0.0429
     34 H          -6.1436   -1.5162   -5.9426 H       1  UNL1        0.0239
     35 H          -6.0035   -1.6641   -7.7109 H       1  UNL1        0.0239
     36 H          -6.8506   -2.9206   -6.7770 H       1  UNL1        0.0239
     37 H          -2.6653   -2.4565   -6.1407 H       1  UNL1        0.0239
     38 H          -3.3036   -1.6916   -7.6157 H       1  UNL1        0.0239
     39 H          -3.8158   -1.1042   -6.0155 H       1  UNL1        0.0239
     40 H          -5.3613   -4.6632   -7.7708 H       1  UNL1        0.0239
     41 H          -4.5143   -3.4068   -8.7047 H       1  UNL1        0.0239
     42 H          -3.5933   -4.5004   -7.6444 H       1  UNL1        0.0239
     43 H          -4.8076   -3.7262   -1.7987 H       1  UNL1        0.0712
@<TRIPOS>BOND
     1     1     2    1
     2     1    21    1
     3     1    22    1
     4     1    23    1
     5     2     3    1
     6     2    24    1
     7     2    25    1
     8     3     4    1
     9     4     5    1
    10     4     6    1
    11     4     7    1
    12     6    26    1
    13     6    27    1
    14     6    28    1
    15     7    20   ar
    16     7     8   ar
    17     8     9   ar
    18     9    10    1
    19     9    19   ar
    20    10    11    1
    21    10    29    1
    22    10    30    1
    23    11    12    1
    24    11    13   am
    25    12    31    1
    26    12    32    1
    27    12    33    1
    28    13    14    2
    29    15    13    1
    30    15    16    1
    31    15    17    1
    32    15    18    1
    33    16    34    1
    34    16    35    1
    35    16    36    1
    36    17    37    1
    37    17    38    1
    38    17    39    1
    39    18    40    1
    40    18    41    1
    41    18    42    1
    42    19    20   ar
    43    19    43    1
