@<TRIPOS>MOLECULE
ZINC000065364964
 33 33 0 0 0
SMALL
GASTEIGER

@<TRIPOS>ATOM
      1 C           0.5042    0.9504   -0.3063 C.3     1  UNL1       -0.0362
      2 C           0.1466   -0.5362   -0.2507 C.3     1  UNL1        0.1186
      3 H          -0.9089   -0.6653   -0.4901 H       1  UNL1        0.0611
      4 C           0.9844   -1.2921   -1.2496 C.2     1  UNL1        0.2325
      5 N           0.6062   -1.3467   -2.5421 N.am    1  UNL1       -0.3278
      6 O           1.9989   -1.8513   -0.8905 O.2     1  UNL1       -0.2739
      7 N           0.4086   -1.0514    1.0955 N.pl3   1  UNL1       -0.1960
      8 C           1.6991   -0.9936    1.6266 C.ar    1  UNL1        0.0522
      9 C           2.2745    0.2348    1.9250 C.ar    1  UNL1       -0.0390
     10 C           3.5507    0.2884    2.4505 C.ar    1  UNL1       -0.0594
     11 C           4.2554   -0.8789    2.6795 C.ar    1  UNL1       -0.0500
     12 C           3.6856   -2.1038    2.3830 C.ar    1  UNL1        0.0566
     13 C           4.4574   -3.3735    2.6343 C.3     1  UNL1        0.4175
     14 F           5.7129   -3.0588    3.1652 F       1  UNL1       -0.1659
     15 F           3.7551   -4.1745    3.5412 F       1  UNL1       -0.1659
     16 F           4.6208   -4.0661    1.4297 F       1  UNL1       -0.1659
     17 C           2.4079   -2.1649    1.8628 C.ar    1  UNL1       -0.0274
     18 S          -0.8255   -1.7025    1.9875 S.O2    1  UNL1        0.0432
     19 C          -0.9246   -3.4266    1.4324 C.3     1  UNL1        0.0738
     20 O          -0.3610   -1.6364    3.3288 O.2     1  UNL1       -0.1552
     21 O          -1.9763   -0.9786    1.5743 O.2     1  UNL1       -0.1552
     22 H           1.5798    1.0704   -0.1773 H       1  UNL1        0.0253
     23 H           0.2060    1.3599   -1.2714 H       1  UNL1        0.0253
     24 H          -0.0186    1.4798    0.4902 H       1  UNL1        0.0253
     25 H          -0.2052   -0.8994   -2.8293 H       1  UNL1        0.1450
     26 H           1.1454   -1.8332   -3.1851 H       1  UNL1        0.1450
     27 H           1.7247    1.1470    1.7461 H       1  UNL1        0.0636
     28 H           3.9989    1.2433    2.6825 H       1  UNL1        0.0618
     29 H           5.2531   -0.8342    3.0905 H       1  UNL1        0.0623
     30 H           1.9636   -3.1217    1.6315 H       1  UNL1        0.0642
     31 H           0.0635   -3.8834    1.4873 H       1  UNL1        0.0482
     32 H          -1.6148   -3.9754    2.0731 H       1  UNL1        0.0482
     33 H          -1.2822   -3.4569    0.4031 H       1  UNL1        0.0482
@<TRIPOS>BOND
     1     1     2    1
     2     1    22    1
     3     1    23    1
     4     1    24    1
     5     2     3    1
     6     2     4    1
     7     2     7    1
     8     4     5   am
     9     4     6    2
    10     5    25    1
    11     5    26    1
    12     7     8    1
    13    18     7    1
    14     8    17   ar
    15     8     9   ar
    16     9    10   ar
    17     9    27    1
    18    10    11   ar
    19    10    28    1
    20    11    12   ar
    21    11    29    1
    22    12    13    1
    23    12    17   ar
    24    13    14    1
    25    13    15    1
    26    13    16    1
    27    17    30    1
    28    18    19    1
    29    18    20    2
    30    18    21    2
    31    19    31    1
    32    19    32    1
    33    19    33    1
