@<TRIPOS>MOLECULE
ZINC000002975707
 50 51 0 0 0
SMALL
GASTEIGER

@<TRIPOS>ATOM
      1 C          -0.0173    1.4248    0.0099 C.3     1  UNL1        0.0364
      2 O           0.0021   -0.0041    0.0020 O.3     1  UNL1       -0.3829
      3 C           0.6734   -0.5824    1.1231 C.3     1  UNL1        0.0487
      4 C           0.6327   -2.1077    1.0107 C.3     1  UNL1       -0.0139
      5 C           1.3514   -2.7270    2.2110 C.3     1  UNL1        0.0137
      6 N           1.3125   -4.1875    2.1034 N.am    1  UNL1       -0.3141
      7 C           1.8871   -4.9489    3.0555 C.2     1  UNL1        0.2288
      8 O           2.4365   -4.4251    4.0013 O.2     1  UNL1       -0.2743
      9 C           1.8470   -6.4513    2.9447 C.3     1  UNL1        0.0971
     10 N           2.5352   -7.0443    4.0941 N.3     1  UNL1       -0.1635
     11 C           1.8124   -7.2579    5.3503 C.3     1  UNL1        0.0460
     12 C           1.0819   -8.5747    5.2919 C.ar    1  UNL1       -0.0316
     13 C          -0.2097   -8.6272    4.8020 C.ar    1  UNL1       -0.0562
     14 C          -0.8799   -9.8348    4.7478 C.ar    1  UNL1       -0.0475
     15 C          -0.2581  -10.9909    5.1838 C.ar    1  UNL1        0.0179
     16 BR         -1.1743  -12.6435    5.1093 Br      1  UNL1       -0.0503
     17 C           1.0344  -10.9379    5.6739 C.ar    1  UNL1       -0.0475
     18 C           1.7057   -9.7307    5.7228 C.ar    1  UNL1       -0.0562
     19 S           4.1302   -7.4730    3.9732 S.O2    1  UNL1        0.0616
     20 O           4.3175   -8.5738    4.8521 O.2     1  UNL1       -0.1528
     21 O           4.4269   -7.5278    2.5846 O.2     1  UNL1       -0.1528
     22 C           5.0792   -6.1428    4.6326 C.ar    1  UNL1        0.1055
     23 C           5.4990   -5.1172    3.8063 C.ar    1  UNL1       -0.0353
     24 C           6.2436   -4.0737    4.3236 C.ar    1  UNL1       -0.0599
     25 C           6.5679   -4.0555    5.6672 C.ar    1  UNL1       -0.0616
     26 C           6.1473   -5.0807    6.4937 C.ar    1  UNL1       -0.0599
     27 C           5.3991   -6.1220    5.9773 C.ar    1  UNL1       -0.0353
     28 H           1.0053    1.8021    0.0021 H       1  UNL1        0.0523
     29 H          -0.5445    1.7859   -0.8732 H       1  UNL1        0.0523
     30 H          -0.5275    1.7763    0.9067 H       1  UNL1        0.0523
     31 H           1.7103   -0.2468    1.1385 H       1  UNL1        0.0560
     32 H           0.1775   -0.2725    2.0430 H       1  UNL1        0.0560
     33 H          -0.4042   -2.4434    0.9953 H       1  UNL1        0.0302
     34 H           1.1285   -2.4176    0.0908 H       1  UNL1        0.0302
     35 H           2.3884   -2.3913    2.2264 H       1  UNL1        0.0463
     36 H           0.8556   -2.4171    3.1309 H       1  UNL1        0.0463
     37 H           0.8731   -4.6065    1.3469 H       1  UNL1        0.1487
     38 H           0.8101   -6.7870    2.9294 H       1  UNL1        0.0539
     39 H           2.3429   -6.7612    2.0248 H       1  UNL1        0.0539
     40 H           2.5204   -7.2716    6.1790 H       1  UNL1        0.0493
     41 H           1.0951   -6.4507    5.4986 H       1  UNL1        0.0493
     42 H          -0.6953   -7.7245    4.4620 H       1  UNL1        0.0621
     43 H          -1.8892   -9.8757    4.3655 H       1  UNL1        0.0629
     44 H           1.5204  -11.8403    6.0143 H       1  UNL1        0.0629
     45 H           2.7148   -9.6892    6.1054 H       1  UNL1        0.0621
     46 H           5.2457   -5.1314    2.7565 H       1  UNL1        0.0637
     47 H           6.5722   -3.2727    3.6779 H       1  UNL1        0.0618
     48 H           7.1502   -3.2406    6.0712 H       1  UNL1        0.0618
     49 H           6.4009   -5.0667    7.5434 H       1  UNL1        0.0618
     50 H           5.0705   -6.9230    6.6230 H       1  UNL1        0.0637
@<TRIPOS>BOND
     1     1     2    1
     2     1    28    1
     3     1    29    1
     4     1    30    1
     5     2     3    1
     6     3     4    1
     7     3    31    1
     8     3    32    1
     9     4     5    1
    10     4    33    1
    11     4    34    1
    12     5     6    1
    13     5    35    1
    14     5    36    1
    15     6     7   am
    16     6    37    1
    17     7     8    2
    18     7     9    1
    19     9    10    1
    20     9    38    1
    21     9    39    1
    22    10    11    1
    23    19    10    1
    24    11    12    1
    25    11    40    1
    26    11    41    1
    27    12    18   ar
    28    12    13   ar
    29    13    14   ar
    30    13    42    1
    31    14    15   ar
    32    14    43    1
    33    15    16    1
    34    15    17   ar
    35    17    18   ar
    36    17    44    1
    37    18    45    1
    38    19    20    2
    39    19    21    2
    40    19    22    1
    41    22    27   ar
    42    22    23   ar
    43    23    24   ar
    44    23    46    1
    45    24    25   ar
    46    24    47    1
    47    25    26   ar
    48    25    48    1
    49    26    27   ar
    50    26    49    1
    51    27    50    1
