@<TRIPOS>MOLECULE
ZINC000169828255
 28 28 0 0 0
SMALL
GASTEIGER

@<TRIPOS>ATOM
      1 C          -0.0187    1.5258    0.0104 C.3     1  UNL1       -0.0474
      2 C           0.0021   -0.0041    0.0020 C.3     1  UNL1        0.0660
      3 C           0.7421   -0.5109    1.2415 C.3     1  UNL1       -0.0474
      4 C          -1.4117   -0.5257    0.0127 C.2     1  UNL1        0.2205
      5 N          -2.2363   -0.2169    1.0331 N.am    1  UNL1       -0.3286
      6 O          -1.8076   -1.2234   -0.8969 O.2     1  UNL1       -0.2751
      7 C           0.7074   -0.4901   -1.2379 C.ar    1  UNL1       -0.0330
      8 C           1.2168    0.4202   -2.1450 C.ar    1  UNL1       -0.0571
      9 C           1.8638   -0.0256   -3.2823 C.ar    1  UNL1       -0.0498
     10 C           2.0019   -1.3817   -3.5123 C.ar    1  UNL1        0.0548
     11 C           2.7068   -1.8677   -4.7524 C.3     1  UNL1        0.4174
     12 F           4.0728   -2.0114   -4.4863 F       1  UNL1       -0.1659
     13 F           2.1743   -3.1026   -5.1378 F       1  UNL1       -0.1659
     14 F           2.5279   -0.9401   -5.7843 F       1  UNL1       -0.1659
     15 C           1.4937   -2.2919   -2.6045 C.ar    1  UNL1       -0.0498
     16 C           0.8501   -1.8461   -1.4653 C.ar    1  UNL1       -0.0571
     17 H           1.0039    1.9031    0.0027 H       1  UNL1        0.0243
     18 H          -0.5459    1.8868   -0.8726 H       1  UNL1        0.0243
     19 H          -0.5289    1.8773    0.9072 H       1  UNL1        0.0243
     20 H           0.2319   -0.1594    2.1383 H       1  UNL1        0.0243
     21 H           0.7568   -1.6008    1.2356 H       1  UNL1        0.0243
     22 H           1.7647   -0.1336    1.2338 H       1  UNL1        0.0243
     23 H          -1.9197    0.3412    1.7606 H       1  UNL1        0.1450
     24 H          -3.1463   -0.5526    1.0400 H       1  UNL1        0.1450
     25 H           1.1090    1.4797   -1.9653 H       1  UNL1        0.0621
     26 H           2.2612    0.6856   -3.9913 H       1  UNL1        0.0623
     27 H           1.6019   -3.3514   -2.7840 H       1  UNL1        0.0623
     28 H           0.4531   -2.5573   -0.7560 H       1  UNL1        0.0621
@<TRIPOS>BOND
     1     1     2    1
     2     1    17    1
     3     1    18    1
     4     1    19    1
     5     2     3    1
     6     2     4    1
     7     2     7    1
     8     3    20    1
     9     3    21    1
    10     3    22    1
    11     4     5   am
    12     4     6    2
    13     5    23    1
    14     5    24    1
    15     7    16   ar
    16     7     8   ar
    17     8     9   ar
    18     8    25    1
    19     9    10   ar
    20     9    26    1
    21    10    11    1
    22    10    15   ar
    23    11    12    1
    24    11    13    1
    25    11    14    1
    26    15    16   ar
    27    15    27    1
    28    16    28    1
