@<TRIPOS>MOLECULE
ZINC000216013620
 47 48 0 0 0
SMALL
GASTEIGER

@<TRIPOS>ATOM
      1 C          -0.0859    1.4611    0.0124 C.3     1  UNL1        0.0035
      2 N          -0.0256   -0.0026    0.0033 N.am    1  UNL1       -0.2981
      3 C           0.1173   -0.7377    1.2625 C.3     1  UNL1        0.0171
      4 C          -1.2685   -1.0535    1.8288 C.3     1  UNL1       -0.0107
      5 C          -1.1192   -1.8212    3.1438 C.3     1  UNL1        0.0601
      6 H          -0.5045   -2.7064    2.9803 H       1  UNL1        0.0596
      7 C          -2.5014   -2.2453    3.6472 C.3     1  UNL1       -0.0265
      8 C          -2.3488   -2.9602    4.9933 C.3     1  UNL1       -0.0486
      9 C          -1.6332   -2.0279    5.9757 C.3     1  UNL1       -0.0294
     10 C          -0.2845   -1.6122    5.3825 C.3     1  UNL1        0.0480
     11 O          -0.4958   -0.9815    4.1177 O.3     1  UNL1       -0.3765
     12 C          -0.1016   -0.6730   -1.1634 C.2     1  UNL1        0.2818
     13 O          -0.1516   -1.8857   -1.1644 O.2     1  UNL1       -0.2668
     14 C          -0.1242    0.0750   -2.4528 C.2     1  UNL1        0.2177
     15 O           0.0409    1.2715   -2.4599 O.2     1  UNL1       -0.2872
     16 C          -0.3531   -0.6617   -3.7474 C.3     1  UNL1        0.0191
     17 C          -0.3293    0.3319   -4.9107 C.3     1  UNL1       -0.0205
     18 C          -0.5582   -0.4048   -6.2053 C.ar    1  UNL1       -0.0469
     19 C           0.5166   -0.9112   -6.9118 C.ar    1  UNL1       -0.0586
     20 C           0.3067   -1.5869   -8.0993 C.ar    1  UNL1       -0.0615
     21 C          -0.9782   -1.7567   -8.5800 C.ar    1  UNL1       -0.0617
     22 C          -2.0531   -1.2511   -7.8731 C.ar    1  UNL1       -0.0615
     23 C          -1.8435   -0.5791   -6.6834 C.ar    1  UNL1       -0.0586
     24 H           0.9088    1.8669   -0.1718 H       1  UNL1        0.0429
     25 H          -0.7673    1.8015   -0.7674 H       1  UNL1        0.0429
     26 H          -0.4442    1.8040    0.9830 H       1  UNL1        0.0429
     27 H           0.6563   -1.6676    1.0812 H       1  UNL1        0.0465
     28 H           0.6720   -0.1297    1.9772 H       1  UNL1        0.0465
     29 H          -1.8075   -0.1236    2.0101 H       1  UNL1        0.0305
     30 H          -1.8231   -1.6616    1.1141 H       1  UNL1        0.0305
     31 H          -3.1299   -1.3635    3.7722 H       1  UNL1        0.0290
     32 H          -2.9601   -2.9214    2.9257 H       1  UNL1        0.0290
     33 H          -3.3337   -3.2154    5.3843 H       1  UNL1        0.0267
     34 H          -1.7616   -3.8687    4.8592 H       1  UNL1        0.0267
     35 H          -2.2441   -1.1418    6.1478 H       1  UNL1        0.0287
     36 H          -1.4710   -2.5486    6.9195 H       1  UNL1        0.0287
     37 H           0.2104   -0.9148    6.0583 H       1  UNL1        0.0560
     38 H           0.3411   -2.4947    5.2484 H       1  UNL1        0.0560
     39 H           0.4331   -1.4036   -3.8872 H       1  UNL1        0.0350
     40 H          -1.3218   -1.1604   -3.7153 H       1  UNL1        0.0350
     41 H          -1.1155    1.0738   -4.7709 H       1  UNL1        0.0317
     42 H           0.6393    0.8306   -4.9428 H       1  UNL1        0.0317
     43 H           1.5205   -0.7785   -6.5361 H       1  UNL1        0.0620
     44 H           1.1465   -1.9819   -8.6516 H       1  UNL1        0.0618
     45 H          -1.1422   -2.2840   -9.5082 H       1  UNL1        0.0618
     46 H          -3.0570   -1.3835   -8.2489 H       1  UNL1        0.0618
     47 H          -2.6833   -0.1841   -6.1311 H       1  UNL1        0.0620
@<TRIPOS>BOND
     1     1     2    1
     2     1    24    1
     3     1    25    1
     4     1    26    1
     5     2     3    1
     6     2    12   am
     7     3     4    1
     8     3    27    1
     9     3    28    1
    10     4     5    1
    11     4    29    1
    12     4    30    1
    13     5     6    1
    14     5    11    1
    15     5     7    1
    16     7     8    1
    17     7    31    1
    18     7    32    1
    19     8     9    1
    20     8    33    1
    21     8    34    1
    22     9    10    1
    23     9    35    1
    24     9    36    1
    25    10    11    1
    26    10    37    1
    27    10    38    1
    28    12    13    2
    29    12    14    1
    30    14    15    2
    31    14    16    1
    32    16    17    1
    33    16    39    1
    34    16    40    1
    35    17    18    1
    36    17    41    1
    37    17    42    1
    38    18    23   ar
    39    18    19   ar
    40    19    20   ar
    41    19    43    1
    42    20    21   ar
    43    20    44    1
    44    21    22   ar
    45    21    45    1
    46    22    23   ar
    47    22    46    1
    48    23    47    1
