@<TRIPOS>MOLECULE
ZINC000012785195
 43 45 0 0 0
SMALL
GASTEIGER

@<TRIPOS>ATOM
      1 O           0.9851    1.9039    0.0119 O.2     1  UNL1       -0.2526
      2 C          -0.0144    1.2117    0.0087 C.2     1  UNL1        0.3025
      3 N           0.0962   -0.1315   -0.0014 N.am    1  UNL1       -0.2964
      4 C           1.4156   -0.7570   -0.1207 C.3     1  UNL1        0.0247
      5 C           1.7183   -1.9471    0.7920 C.3     1  UNL1       -0.0328
      6 C           1.4771   -2.1708   -0.7023 C.3     1  UNL1       -0.0328
      7 N          -1.2329    1.7874    0.0209 N.am    1  UNL1       -0.2831
      8 C          -1.3716    3.2471   -0.0797 C.3     1  UNL1        0.0306
      9 C          -2.2947    3.5714   -1.2608 C.3     1  UNL1        0.0364
     10 N          -3.5086    2.7509   -1.1472 N.3     1  UNL1       -0.1736
     11 S          -5.0058    3.4582   -1.1333 S.O2    1  UNL1        0.0609
     12 O          -5.8759    2.5432   -0.4815 O.2     1  UNL1       -0.1528
     13 O          -4.8137    4.7957   -0.6935 O.2     1  UNL1       -0.1528
     14 C          -5.5511    3.5579   -2.8058 C.ar    1  UNL1        0.1055
     15 C          -5.2514    4.6734   -3.5652 C.ar    1  UNL1       -0.0348
     16 C          -5.6791    4.7516   -4.8774 C.ar    1  UNL1       -0.0483
     17 C          -6.4063    3.7141   -5.4303 C.ar    1  UNL1        0.0549
     18 C          -6.8730    3.7995   -6.8607 C.3     1  UNL1        0.4174
     19 F          -5.8980    3.2543   -7.7028 F       1  UNL1       -0.1659
     20 F          -8.0668    3.0845   -7.0052 F       1  UNL1       -0.1659
     21 F          -7.0877    5.1392   -7.2019 F       1  UNL1       -0.1659
     22 C          -6.7048    2.5980   -4.6714 C.ar    1  UNL1       -0.0483
     23 C          -6.2738    2.5181   -3.3604 C.ar    1  UNL1       -0.0348
     24 C          -3.3700    1.2912   -1.0466 C.3     1  UNL1        0.0364
     25 C          -2.4471    0.9664    0.1288 C.3     1  UNL1        0.0306
     26 H          -0.6978   -0.6841    0.0703 H       1  UNL1        0.1505
     27 H           2.2372   -0.0802   -0.3549 H       1  UNL1        0.0499
     28 H           2.7393   -2.0534    1.1584 H       1  UNL1        0.0284
     29 H           0.9358   -2.2647    1.4811 H       1  UNL1        0.0284
     30 H           0.5360   -2.6356   -0.9961 H       1  UNL1        0.0284
     31 H           2.3395   -2.4242   -1.3188 H       1  UNL1        0.0284
     32 H          -1.8046    3.6377    0.8411 H       1  UNL1        0.0478
     33 H          -0.3928    3.6969   -0.2462 H       1  UNL1        0.0478
     34 H          -2.5633    4.6275   -1.2358 H       1  UNL1        0.0459
     35 H          -1.7850    3.3431   -2.1968 H       1  UNL1        0.0459
     36 H          -4.6833    5.4840   -3.1332 H       1  UNL1        0.0637
     37 H          -5.4456    5.6234   -5.4705 H       1  UNL1        0.0624
     38 H          -7.2726    1.7872   -5.1035 H       1  UNL1        0.0624
     39 H          -6.5070    1.6461   -2.7674 H       1  UNL1        0.0637
     40 H          -4.3488    0.8414   -0.8801 H       1  UNL1        0.0459
     41 H          -2.9369    0.9006   -1.9674 H       1  UNL1        0.0459
     42 H          -2.1793   -0.0898    0.1027 H       1  UNL1        0.0478
     43 H          -2.9544    1.1946    1.0662 H       1  UNL1        0.0478
@<TRIPOS>BOND
     1     1     2    2
     2     2     3   am
     3     2     7   am
     4     3     4    1
     5     3    26    1
     6     4     6    1
     7     4     5    1
     8     4    27    1
     9     5     6    1
    10     5    28    1
    11     5    29    1
    12     6    30    1
    13     6    31    1
    14     7    25    1
    15     7     8    1
    16     8     9    1
    17     8    32    1
    18     8    33    1
    19     9    10    1
    20     9    34    1
    21     9    35    1
    22    11    10    1
    23    10    24    1
    24    11    12    2
    25    11    13    2
    26    11    14    1
    27    14    23   ar
    28    14    15   ar
    29    15    16   ar
    30    15    36    1
    31    16    17   ar
    32    16    37    1
    33    17    18    1
    34    17    22   ar
    35    18    19    1
    36    18    20    1
    37    18    21    1
    38    22    23   ar
    39    22    38    1
    40    23    39    1
    41    24    25    1
    42    24    40    1
    43    24    41    1
    44    25    42    1
    45    25    43    1
