@<TRIPOS>MOLECULE
ZINC000060348752
 42 44 0 0 0
SMALL
GASTEIGER

@<TRIPOS>ATOM
      1 O          -0.5559    0.1522   -0.4135 O.2     1  UNL1       -0.1528
      2 S          -0.0321    1.4117   -0.0155 S.O2    1  UNL1        0.0612
      3 O           1.3399    1.6217    0.2893 O.2     1  UNL1       -0.1528
      4 C          -0.4356    2.5471   -1.3012 C.ar    1  UNL1        0.1055
      5 C          -1.4390    2.2430   -2.2020 C.ar    1  UNL1       -0.0348
      6 C          -1.7556    3.1337   -3.2106 C.ar    1  UNL1       -0.0483
      7 C          -1.0690    4.3287   -3.3181 C.ar    1  UNL1        0.0549
      8 C          -1.4138    5.2995   -4.4180 C.3     1  UNL1        0.4174
      9 F          -2.4050    6.1791   -3.9699 F       1  UNL1       -0.1659
     10 F          -0.2722    6.0256   -4.7739 F       1  UNL1       -0.1659
     11 F          -1.8841    4.5949   -5.5314 F       1  UNL1       -0.1659
     12 C          -0.0665    4.6333   -2.4165 C.ar    1  UNL1       -0.0483
     13 C           0.2475    3.7443   -1.4055 C.ar    1  UNL1       -0.0348
     14 N          -0.8849    1.8694    1.3282 N.3     1  UNL1       -0.1687
     15 C          -0.7788    3.2380    1.8519 C.3     1  UNL1        0.0210
     16 C          -2.1869    3.8278    1.9795 C.3     1  UNL1       -0.0385
     17 C          -3.0513    2.8945    2.8303 C.3     1  UNL1       -0.0502
     18 C          -3.1592    1.5304    2.1449 C.3     1  UNL1       -0.0309
     19 C          -1.7668    0.9164    2.0156 C.3     1  UNL1        0.0827
     20 H          -1.3663    0.7069    3.0075 H       1  UNL1        0.0530
     21 C          -1.8518   -0.3828    1.2119 C.3     1  UNL1        0.1762
     22 O          -0.5866   -1.0773    1.2556 O.3     1  UNL1       -0.3474
     23 C          -0.9481   -2.4447    0.9438 C.3     1  UNL1        0.0742
     24 C          -2.3147   -2.6084    1.6446 C.3     1  UNL1        0.0742
     25 O          -2.8159   -1.2692    1.8054 O.3     1  UNL1       -0.3474
     26 H          -1.9754    1.3094   -2.1180 H       1  UNL1        0.0637
     27 H          -2.5391    2.8958   -3.9149 H       1  UNL1        0.0624
     28 H           0.4697    5.5671   -2.5002 H       1  UNL1        0.0624
     29 H           1.0307    3.9824   -0.7011 H       1  UNL1        0.0637
     30 H          -0.3007    3.2184    2.8313 H       1  UNL1        0.0444
     31 H          -0.1884    3.8467    1.1670 H       1  UNL1        0.0444
     32 H          -2.1297    4.8062    2.4565 H       1  UNL1        0.0278
     33 H          -2.6293    3.9309    0.9887 H       1  UNL1        0.0278
     34 H          -2.5953    2.7722    3.8127 H       1  UNL1        0.0266
     35 H          -4.0468    3.3239    2.9432 H       1  UNL1        0.0266
     36 H          -3.7941    0.8736    2.7396 H       1  UNL1        0.0282
     37 H          -3.5925    1.6551    1.1525 H       1  UNL1        0.0282
     38 H          -2.1266   -0.1671    0.1795 H       1  UNL1        0.0926
     39 H          -1.0480   -2.5814   -0.1330 H       1  UNL1        0.0584
     40 H          -0.2174   -3.1405    1.3560 H       1  UNL1        0.0584
     41 H          -2.9916   -3.1937    1.0223 H       1  UNL1        0.0584
     42 H          -2.1868   -3.0840    2.6171 H       1  UNL1        0.0584
@<TRIPOS>BOND
     1     1     2    2
     2     2     3    2
     3     2     4    1
     4     2    14    1
     5     4    13   ar
     6     4     5   ar
     7     5     6   ar
     8     5    26    1
     9     6     7   ar
    10     6    27    1
    11     7     8    1
    12     7    12   ar
    13     8     9    1
    14     8    10    1
    15     8    11    1
    16    12    13   ar
    17    12    28    1
    18    13    29    1
    19    14    19    1
    20    14    15    1
    21    15    16    1
    22    15    30    1
    23    15    31    1
    24    16    17    1
    25    16    32    1
    26    16    33    1
    27    17    18    1
    28    17    34    1
    29    17    35    1
    30    18    19    1
    31    18    36    1
    32    18    37    1
    33    19    20    1
    34    19    21    1
    35    21    25    1
    36    21    22    1
    37    21    38    1
    38    22    23    1
    39    23    24    1
    40    23    39    1
    41    23    40    1
    42    24    25    1
    43    24    41    1
    44    24    42    1
