@<TRIPOS>MOLECULE
ZINC000015743889
 53 55 0 0 0
SMALL
GASTEIGER

@<TRIPOS>ATOM
      1 C          -0.0187    1.5258    0.0104 C.3     1  UNL1       -0.0580
      2 C           0.0021   -0.0041    0.0020 C.3     1  UNL1       -0.0104
      3 H           0.5123   -0.3556   -0.8948 H       1  UNL1        0.0351
      4 C           0.7421   -0.5109    1.2415 C.3     1  UNL1        0.0307
      5 C           2.1879   -0.0922    1.1696 C.2     1  UNL1        0.2162
      6 O           2.5872    0.5485    0.2204 O.2     1  UNL1       -0.2756
      7 N           3.0373   -0.4297    2.1601 N.am    1  UNL1       -0.2989
      8 C           2.5689   -1.2111    3.3133 C.3     1  UNL1        0.0291
      9 C           3.4447   -2.4632    3.4453 C.3     1  UNL1        0.0363
     10 N           4.8560   -2.0569    3.3912 N.3     1  UNL1       -0.1736
     11 S           5.8999   -2.4726    4.6077 S.O2    1  UNL1        0.0609
     12 O           6.9587   -1.5256    4.5690 O.2     1  UNL1       -0.1528
     13 O           5.1018   -2.6993    5.7614 O.2     1  UNL1       -0.1528
     14 C           6.6077   -4.0281    4.1789 C.ar    1  UNL1        0.1055
     15 C           5.9929   -5.2005    4.5769 C.ar    1  UNL1       -0.0348
     16 C           6.5482   -6.4209    4.2405 C.ar    1  UNL1       -0.0483
     17 C           7.7180   -6.4689    3.5056 C.ar    1  UNL1        0.0549
     18 C           8.3236   -7.7993    3.1392 C.3     1  UNL1        0.4174
     19 F           7.8090   -8.2231    1.9092 F       1  UNL1       -0.1659
     20 F           9.7132   -7.6686    3.0432 F       1  UNL1       -0.1659
     21 F           8.0108   -8.7414    4.1250 F       1  UNL1       -0.1659
     22 C           8.3321   -5.2966    3.1063 C.ar    1  UNL1       -0.0483
     23 C           7.7747   -4.0762    3.4395 C.ar    1  UNL1       -0.0348
     24 C           5.3245   -1.2756    2.2380 C.3     1  UNL1        0.0363
     25 C           4.4499   -0.0282    2.1033 C.3     1  UNL1        0.0291
     26 C          -1.4117   -0.5257    0.0127 C.ar    1  UNL1       -0.0441
     27 C          -2.2591   -0.2043    1.0565 C.ar    1  UNL1       -0.0583
     28 C          -3.5560   -0.6827    1.0663 C.ar    1  UNL1       -0.0615
     29 C          -4.0056   -1.4823    0.0321 C.ar    1  UNL1       -0.0617
     30 C          -3.1585   -1.8029   -1.0121 C.ar    1  UNL1       -0.0615
     31 C          -1.8629   -1.3209   -1.0241 C.ar    1  UNL1       -0.0583
     32 H           1.0039    1.9031    0.0027 H       1  UNL1        0.0236
     33 H          -0.5459    1.8868   -0.8726 H       1  UNL1        0.0236
     34 H          -0.5289    1.8773    0.9072 H       1  UNL1        0.0236
     35 H           0.2852   -0.0874    2.1360 H       1  UNL1        0.0364
     36 H           0.6803   -1.5984    1.2822 H       1  UNL1        0.0364
     37 H           2.6502   -0.6106    4.2194 H       1  UNL1        0.0478
     38 H           1.5308   -1.5054    3.1585 H       1  UNL1        0.0478
     39 H           3.2413   -2.9532    4.3975 H       1  UNL1        0.0459
     40 H           3.2295   -3.1482    2.6252 H       1  UNL1        0.0459
     41 H           5.0789   -5.1630    5.1511 H       1  UNL1        0.0637
     42 H           6.0682   -7.3368    4.5521 H       1  UNL1        0.0624
     43 H           9.2458   -5.3341    2.5319 H       1  UNL1        0.0624
     44 H           8.2545   -3.1603    3.1276 H       1  UNL1        0.0637
     45 H           6.3625   -0.9813    2.3929 H       1  UNL1        0.0459
     46 H           5.2432   -1.8760    1.3320 H       1  UNL1        0.0459
     47 H           4.6544    0.4608    1.1509 H       1  UNL1        0.0478
     48 H           4.6629    0.6581    2.9229 H       1  UNL1        0.0478
     49 H          -1.9079    0.4204    1.8645 H       1  UNL1        0.0620
     50 H          -4.2179   -0.4322    1.8822 H       1  UNL1        0.0618
     51 H          -5.0186   -1.8567    0.0402 H       1  UNL1        0.0618
     52 H          -3.5096   -2.4278   -1.8199 H       1  UNL1        0.0618
     53 H          -1.2011   -1.5714   -1.8399 H       1  UNL1        0.0620
@<TRIPOS>BOND
     1     1     2    1
     2     1    32    1
     3     1    33    1
     4     1    34    1
     5     2     3    1
     6     2     4    1
     7     2    26    1
     8     4     5    1
     9     4    35    1
    10     4    36    1
    11     5     6    2
    12     5     7   am
    13     7    25    1
    14     7     8    1
    15     8     9    1
    16     8    37    1
    17     8    38    1
    18     9    10    1
    19     9    39    1
    20     9    40    1
    21    11    10    1
    22    10    24    1
    23    11    12    2
    24    11    13    2
    25    11    14    1
    26    14    23   ar
    27    14    15   ar
    28    15    16   ar
    29    15    41    1
    30    16    17   ar
    31    16    42    1
    32    17    18    1
    33    17    22   ar
    34    18    19    1
    35    18    20    1
    36    18    21    1
    37    22    23   ar
    38    22    43    1
    39    23    44    1
    40    24    25    1
    41    24    45    1
    42    24    46    1
    43    25    47    1
    44    25    48    1
    45    26    31   ar
    46    26    27   ar
    47    27    28   ar
    48    27    49    1
    49    28    29   ar
    50    28    50    1
    51    29    30   ar
    52    29    51    1
    53    30    31   ar
    54    30    52    1
    55    31    53    1
