@<TRIPOS>MOLECULE
ZINC000045974621
 55 56 0 0 0
SMALL
GASTEIGER

@<TRIPOS>ATOM
      1 C          -0.0187    1.5258    0.0104 C.3     1  UNL1       -0.0613
      2 C           0.0021   -0.0041    0.0020 C.3     1  UNL1       -0.0305
      3 C           0.7074   -0.4901   -1.2379 C.ar    1  UNL1       -0.0475
      4 C          -0.0105   -0.7185   -2.3969 C.ar    1  UNL1       -0.0567
      5 C           0.6365   -1.1643   -3.5342 C.ar    1  UNL1       -0.0351
      6 C           2.0016   -1.3812   -3.5126 C.ar    1  UNL1        0.1055
      7 S           2.8262   -1.9500   -4.9622 S.O2    1  UNL1        0.0613
      8 O           4.0170   -2.5884   -4.5220 O.2     1  UNL1       -0.1528
      9 O           1.8423   -2.6013   -5.7541 O.2     1  UNL1       -0.1528
     10 N           3.3006   -0.6112   -5.8135 N.3     1  UNL1       -0.1677
     11 C           4.6143   -0.0125   -5.5646 C.3     1  UNL1        0.0231
     12 C           5.6247   -0.5620   -6.5736 C.3     1  UNL1       -0.0150
     13 C           6.9967    0.0633   -6.3137 C.3     1  UNL1        0.0485
     14 O           7.9403   -0.4500   -7.2562 O.3     1  UNL1       -0.3829
     15 C           9.2610    0.0729   -7.0999 C.3     1  UNL1        0.0364
     16 C           2.4067   -0.0255   -6.8155 C.3     1  UNL1        0.0970
     17 C           1.6169    1.0953   -6.1901 C.2     1  UNL1        0.2314
     18 O           1.7843    1.3771   -5.0224 O.2     1  UNL1       -0.2741
     19 N           0.7245    1.7846   -6.9284 N.am    1  UNL1       -0.2980
     20 C           0.5017    1.4553   -8.3445 C.3     1  UNL1        0.0273
     21 C           0.6191    2.7423   -9.1679 C.3     1  UNL1        0.0118
     22 N          -0.2880    3.7574   -8.6160 N.3     1  UNL1       -0.3130
     23 C           0.0870    4.1167   -7.2419 C.3     1  UNL1        0.0118
     24 C          -0.0566    2.8820   -6.3379 C.3     1  UNL1        0.0273
     25 C           2.7197   -1.1515   -2.3540 C.ar    1  UNL1       -0.0351
     26 C           2.0733   -0.7021   -1.2178 C.ar    1  UNL1       -0.0567
     27 H           1.0039    1.9031    0.0027 H       1  UNL1        0.0233
     28 H          -0.5459    1.8868   -0.8726 H       1  UNL1        0.0233
     29 H          -0.5289    1.8773    0.9072 H       1  UNL1        0.0233
     30 H           0.5293   -0.3651    0.8851 H       1  UNL1        0.0311
     31 H          -1.0205   -0.3814    0.0098 H       1  UNL1        0.0311
     32 H          -1.0770   -0.5490   -2.4137 H       1  UNL1        0.0621
     33 H           0.0755   -1.3434   -4.4395 H       1  UNL1        0.0637
     34 H           4.5463    1.0702   -5.6714 H       1  UNL1        0.0445
     35 H           4.9400   -0.2581   -4.5538 H       1  UNL1        0.0445
     36 H           5.6927   -1.6446   -6.4668 H       1  UNL1        0.0300
     37 H           5.2990   -0.3164   -7.5844 H       1  UNL1        0.0300
     38 H           6.9287    1.1459   -6.4205 H       1  UNL1        0.0560
     39 H           7.3223   -0.1824   -5.3029 H       1  UNL1        0.0560
     40 H           9.9168   -0.3656   -7.8520 H       1  UNL1        0.0523
     41 H           9.2400    1.1557   -7.2230 H       1  UNL1        0.0523
     42 H           9.6336   -0.1725   -6.1054 H       1  UNL1        0.0523
     43 H           2.9965    0.3644   -7.6450 H       1  UNL1        0.0539
     44 H           1.7229   -0.7903   -7.1837 H       1  UNL1        0.0539
     45 H           1.2528    0.7385   -8.6763 H       1  UNL1        0.0477
     46 H          -0.4944    1.0304   -8.4692 H       1  UNL1        0.0477
     47 H           1.6446    3.1091   -9.1251 H       1  UNL1        0.0439
     48 H           0.3486    2.5374  -10.2037 H       1  UNL1        0.0439
     49 H          -0.3195    4.5742   -9.2075 H       1  UNL1        0.1220
     50 H           1.1200    4.4644   -7.2259 H       1  UNL1        0.0439
     51 H          -0.5693    4.9085   -6.8809 H       1  UNL1        0.0439
     52 H          -1.1067    2.5972   -6.2712 H       1  UNL1        0.0477
     53 H           0.3279    3.1093   -5.3437 H       1  UNL1        0.0477
     54 H           3.7863   -1.3207   -2.3373 H       1  UNL1        0.0637
     55 H           2.6344   -0.5226   -0.3126 H       1  UNL1        0.0621
@<TRIPOS>BOND
     1     1     2    1
     2     1    27    1
     3     1    28    1
     4     1    29    1
     5     2     3    1
     6     2    30    1
     7     2    31    1
     8     3    26   ar
     9     3     4   ar
    10     4     5   ar
    11     4    32    1
    12     5     6   ar
    13     5    33    1
    14     6     7    1
    15     6    25   ar
    16     7     8    2
    17     7     9    2
    18     7    10    1
    19    10    11    1
    20    10    16    1
    21    11    12    1
    22    11    34    1
    23    11    35    1
    24    12    13    1
    25    12    36    1
    26    12    37    1
    27    13    14    1
    28    13    38    1
    29    13    39    1
    30    14    15    1
    31    15    40    1
    32    15    41    1
    33    15    42    1
    34    16    17    1
    35    16    43    1
    36    16    44    1
    37    17    18    2
    38    17    19   am
    39    19    24    1
    40    19    20    1
    41    20    21    1
    42    20    45    1
    43    20    46    1
    44    21    22    1
    45    21    47    1
    46    21    48    1
    47    22    23    1
    48    22    49    1
    49    23    24    1
    50    23    50    1
    51    23    51    1
    52    24    52    1
    53    24    53    1
    54    25    26   ar
    55    25    54    1
    56    26    55    1
