@<TRIPOS>MOLECULE
ZINC000012809650
 50 52 0 0 0
SMALL
GASTEIGER

@<TRIPOS>ATOM
      1 C          -0.0271    1.8368    0.0029 C.3     1  UNL1        0.0707
      2 S           0.0022    0.0230    0.0062 S.O2    1  UNL1        0.0290
      3 O           0.8458   -0.4602    1.0425 O.2     1  UNL1       -0.1583
      4 O          -1.3077   -0.4972   -0.1746 O.2     1  UNL1       -0.1583
      5 N           0.7978   -0.3799   -1.3892 N.3     1  UNL1       -0.1813
      6 C           0.0576   -0.5750   -2.6433 C.3     1  UNL1        0.0208
      7 C           0.6763    0.3163   -3.7248 C.3     1  UNL1       -0.0274
      8 C           2.1747    0.0220   -3.8270 C.3     1  UNL1        0.0383
      9 C           2.7804    0.8727   -4.9135 C.2     1  UNL1        0.2204
     10 O           2.0827    1.6387   -5.5439 O.2     1  UNL1       -0.2752
     11 N           4.0975    0.7823   -5.1847 N.am    1  UNL1       -0.2853
     12 C           4.6418    1.4988   -6.2550 C.ar    1  UNL1        0.0334
     13 C           4.1487    2.7599   -6.5679 C.ar    1  UNL1       -0.0399
     14 C           4.6837    3.4682   -7.6227 C.ar    1  UNL1       -0.0523
     15 C           5.7201    2.9185   -8.3757 C.ar    1  UNL1       -0.0178
     16 C           6.2978    3.6789   -9.5109 C.ar    1  UNL1       -0.0174
     17 C           5.8104    4.9462   -9.8239 C.ar    1  UNL1       -0.0540
     18 C           6.3521    5.6494  -10.8810 C.ar    1  UNL1       -0.0607
     19 C           7.3763    5.0982  -11.6292 C.ar    1  UNL1       -0.0501
     20 C           7.8638    3.8401  -11.3233 C.ar    1  UNL1        0.0554
     21 C           8.9801    3.2462  -12.1432 C.3     1  UNL1        0.4174
     22 F           9.3518    4.1471  -13.1469 F       1  UNL1       -0.1659
     23 F          10.0794    2.9887  -11.3172 F       1  UNL1       -0.1659
     24 F           8.5453    2.0514  -12.7268 F       1  UNL1       -0.1659
     25 C           7.3341    3.1307  -10.2648 C.ar    1  UNL1       -0.0424
     26 C           6.2131    1.6534   -8.0600 C.ar    1  UNL1       -0.0523
     27 C           5.6788    0.9511   -7.0008 C.ar    1  UNL1       -0.0399
     28 C           2.8513    0.3419   -2.4921 C.3     1  UNL1       -0.0274
     29 C           2.2579   -0.5431   -1.3980 C.3     1  UNL1        0.0208
     30 H           0.9945    2.2167   -0.0072 H       1  UNL1        0.0479
     31 H          -0.5549    2.1901   -0.8829 H       1  UNL1        0.0479
     32 H          -0.5386    2.1935    0.8969 H       1  UNL1        0.0479
     33 H           0.1242   -1.6193   -2.9482 H       1  UNL1        0.0444
     34 H          -0.9872   -0.3007   -2.4974 H       1  UNL1        0.0444
     35 H           0.1990    0.1104   -4.6829 H       1  UNL1        0.0285
     36 H           0.5284    1.3636   -3.4617 H       1  UNL1        0.0285
     37 H           2.3225   -1.0312   -4.0656 H       1  UNL1        0.0395
     38 H           4.6679    0.2201   -4.6374 H       1  UNL1        0.1548
     39 H           3.3455    3.1852   -5.9845 H       1  UNL1        0.0636
     40 H           4.3000    4.4480   -7.8658 H       1  UNL1        0.0624
     41 H           5.0101    5.3773   -9.2408 H       1  UNL1        0.0624
     42 H           5.9751    6.6317  -11.1245 H       1  UNL1        0.0618
     43 H           7.7969    5.6518  -12.4557 H       1  UNL1        0.0623
     44 H           7.7154    2.1486  -10.0269 H       1  UNL1        0.0629
     45 H           7.0157    1.2254   -8.6423 H       1  UNL1        0.0624
     46 H           6.0604   -0.0291   -6.7558 H       1  UNL1        0.0636
     47 H           3.9220    0.1543   -2.5728 H       1  UNL1        0.0285
     48 H           2.6829    1.3890   -2.2406 H       1  UNL1        0.0285
     49 H           2.6654   -0.2505   -0.4303 H       1  UNL1        0.0444
     50 H           2.5019   -1.5862   -1.5993 H       1  UNL1        0.0444
@<TRIPOS>BOND
     1     1     2    1
     2     1    30    1
     3     1    31    1
     4     1    32    1
     5     2     3    2
     6     2     4    2
     7     2     5    1
     8     5    29    1
     9     5     6    1
    10     6     7    1
    11     6    33    1
    12     6    34    1
    13     7     8    1
    14     7    35    1
    15     7    36    1
    16     8     9    1
    17     8    28    1
    18     8    37    1
    19     9    10    2
    20     9    11   am
    21    11    12    1
    22    11    38    1
    23    12    27   ar
    24    12    13   ar
    25    13    14   ar
    26    13    39    1
    27    14    15   ar
    28    14    40    1
    29    15    16    1
    30    15    26   ar
    31    16    25   ar
    32    16    17   ar
    33    17    18   ar
    34    17    41    1
    35    18    19   ar
    36    18    42    1
    37    19    20   ar
    38    19    43    1
    39    20    21    1
    40    20    25   ar
    41    21    22    1
    42    21    23    1
    43    21    24    1
    44    25    44    1
    45    26    27   ar
    46    26    45    1
    47    27    46    1
    48    28    29    1
    49    28    47    1
    50    28    48    1
    51    29    49    1
    52    29    50    1
