@<TRIPOS>MOLECULE
ZINC000408621049
 53 54 0 0 0
SMALL
GASTEIGER

@<TRIPOS>ATOM
      1 C          -0.0173    1.4248    0.0099 C.3     1  UNL1        0.0365
      2 O           0.0021   -0.0041    0.0020 O.3     1  UNL1       -0.3812
      3 C           0.6518   -0.5703   -1.1379 C.3     1  UNL1        0.0654
      4 C           0.6131   -2.0967   -1.0411 C.3     1  UNL1        0.0437
      5 H           1.0288   -2.5292   -1.9512 H       1  UNL1        0.0518
      6 C          -0.8350   -2.5604   -0.8713 C.3     1  UNL1       -0.0445
      7 N           1.4039   -2.5331    0.1124 N.am    1  UNL1       -0.3094
      8 C           1.9385   -3.7701    0.1337 C.2     1  UNL1        0.2291
      9 O           1.7649   -4.5220   -0.8019 O.2     1  UNL1       -0.2743
     10 C           2.7520   -4.2190    1.3202 C.3     1  UNL1        0.0971
     11 N           3.2178   -5.5908    1.1021 N.3     1  UNL1       -0.1635
     12 C           4.4475   -5.8351    0.3443 C.3     1  UNL1        0.0460
     13 C           5.6348   -5.7323    1.2666 C.ar    1  UNL1       -0.0316
     14 C           6.2607   -4.5141    1.4545 C.ar    1  UNL1       -0.0570
     15 C           7.3498   -4.4198    2.3006 C.ar    1  UNL1       -0.0585
     16 C           7.8128   -5.5436    2.9591 C.ar    1  UNL1       -0.0504
     17 C           9.0004   -5.4409    3.8811 C.3     1  UNL1       -0.0397
     18 C           7.1861   -6.7615    2.7723 C.ar    1  UNL1       -0.0585
     19 C           6.0946   -6.8550    1.9292 C.ar    1  UNL1       -0.0570
     20 S           2.3542   -6.8653    1.7123 S.O2    1  UNL1        0.0616
     21 O           3.2955   -7.8948    1.9829 O.2     1  UNL1       -0.1528
     22 O           1.4868   -6.3259    2.7001 O.2     1  UNL1       -0.1528
     23 C           1.3213   -7.4636    0.4162 C.ar    1  UNL1        0.1055
     24 C           0.0519   -6.9428    0.2478 C.ar    1  UNL1       -0.0353
     25 C          -0.7584   -7.4122   -0.7690 C.ar    1  UNL1       -0.0599
     26 C          -0.2992   -8.4020   -1.6177 C.ar    1  UNL1       -0.0616
     27 C           0.9705   -8.9221   -1.4499 C.ar    1  UNL1       -0.0599
     28 C           1.7824   -8.4497   -0.4357 C.ar    1  UNL1       -0.0353
     29 H           1.0053    1.8021    0.0021 H       1  UNL1        0.0523
     30 H          -0.5445    1.7859   -0.8732 H       1  UNL1        0.0523
     31 H          -0.5275    1.7763    0.9067 H       1  UNL1        0.0523
     32 H           0.1385   -0.2506   -2.0447 H       1  UNL1        0.0578
     33 H           1.6883   -0.2344   -1.1694 H       1  UNL1        0.0578
     34 H          -0.8626   -3.6479   -0.8024 H       1  UNL1        0.0248
     35 H          -1.2507   -2.1280    0.0388 H       1  UNL1        0.0248
     36 H          -1.4235   -2.2357   -1.7295 H       1  UNL1        0.0248
     37 H           1.5428   -1.9317    0.8607 H       1  UNL1        0.1491
     38 H           3.6107   -3.5589    1.4427 H       1  UNL1        0.0539
     39 H           2.1352   -4.1832    2.2182 H       1  UNL1        0.0539
     40 H           4.4126   -6.8328   -0.0932 H       1  UNL1        0.0493
     41 H           4.5386   -5.0934   -0.4493 H       1  UNL1        0.0493
     42 H           5.8989   -3.6361    0.9400 H       1  UNL1        0.0621
     43 H           7.8392   -3.4682    2.4469 H       1  UNL1        0.0620
     44 H           8.6580   -5.2138    4.8907 H       1  UNL1        0.0278
     45 H           9.5403   -6.3878    3.8849 H       1  UNL1        0.0278
     46 H           9.6618   -4.6469    3.5346 H       1  UNL1        0.0278
     47 H           7.5476   -7.6394    3.2871 H       1  UNL1        0.0620
     48 H           5.6050   -7.8065    1.7832 H       1  UNL1        0.0621
     49 H          -0.3068   -6.1695    0.9109 H       1  UNL1        0.0637
     50 H          -1.7505   -7.0059   -0.9001 H       1  UNL1        0.0618
     51 H          -0.9326   -8.7692   -2.4116 H       1  UNL1        0.0618
     52 H           1.3291   -9.6957   -2.1127 H       1  UNL1        0.0618
     53 H           2.7745   -8.8560   -0.3046 H       1  UNL1        0.0637
@<TRIPOS>BOND
     1     1     2    1
     2     1    29    1
     3     1    30    1
     4     1    31    1
     5     2     3    1
     6     3     4    1
     7     3    32    1
     8     3    33    1
     9     4     5    1
    10     4     6    1
    11     4     7    1
    12     6    34    1
    13     6    35    1
    14     6    36    1
    15     7     8   am
    16     7    37    1
    17     8     9    2
    18     8    10    1
    19    10    11    1
    20    10    38    1
    21    10    39    1
    22    11    12    1
    23    20    11    1
    24    12    13    1
    25    12    40    1
    26    12    41    1
    27    13    19   ar
    28    13    14   ar
    29    14    15   ar
    30    14    42    1
    31    15    16   ar
    32    15    43    1
    33    16    17    1
    34    16    18   ar
    35    17    44    1
    36    17    45    1
    37    17    46    1
    38    18    19   ar
    39    18    47    1
    40    19    48    1
    41    20    21    2
    42    20    22    2
    43    20    23    1
    44    23    28   ar
    45    23    24   ar
    46    24    25   ar
    47    24    49    1
    48    25    26   ar
    49    25    50    1
    50    26    27   ar
    51    26    51    1
    52    27    28   ar
    53    27    52    1
    54    28    53    1
