@<TRIPOS>MOLECULE
ZINC000299804014
 30 31 0 0 0
SMALL
GASTEIGER

@<TRIPOS>ATOM
      1 O           0.0021   -0.0041    0.0020 O.co2   1  UNL1       -0.2442
      2 C          -0.0145    1.2150    0.0087 C.2     1  UNL1        0.3776
      3 O           1.0330    1.8389    0.0021 O.co2   1  UNL1       -0.2442
      4 C          -1.3296    1.9507    0.0190 C.3     1  UNL1        0.1443
      5 H          -1.9840    1.5517    0.7940 H       1  UNL1        0.0634
      6 C          -2.0095    1.8625   -1.3612 C.3     1  UNL1        0.0423
      7 N          -2.1040    3.2637   -1.7975 N.am    1  UNL1       -0.2969
      8 C          -1.5775    4.0550   -0.8537 C.2     1  UNL1        0.3033
      9 O          -1.5257    5.2654   -0.9566 O.2     1  UNL1       -0.2526
     10 N          -1.1135    3.3917    0.2174 N.am    1  UNL1       -0.2662
     11 C          -0.4899    4.0064    1.3919 C.3     1  UNL1        0.0421
     12 C          -1.5503    4.3267    2.4138 C.ar    1  UNL1       -0.0300
     13 C          -2.1854    5.5542    2.3892 C.ar    1  UNL1       -0.0565
     14 C          -3.1581    5.8480    3.3265 C.ar    1  UNL1       -0.0498
     15 C          -3.4958    4.9142    4.2881 C.ar    1  UNL1        0.0548
     16 C          -4.5558    5.2347    5.3103 C.3     1  UNL1        0.4174
     17 F          -5.8070    4.8411    4.8237 F       1  UNL1       -0.1659
     18 F          -4.2806    4.5489    6.4982 F       1  UNL1       -0.1659
     19 F          -4.5638    6.6116    5.5578 F       1  UNL1       -0.1659
     20 C          -2.8616    3.6861    4.3119 C.ar    1  UNL1       -0.0498
     21 C          -1.8917    3.3908    3.3722 C.ar    1  UNL1       -0.0565
     22 H          -1.3958    1.2867   -2.0539 H       1  UNL1        0.0486
     23 H          -3.0025    1.4221   -1.2711 H       1  UNL1        0.0486
     24 H          -2.4868    3.5667   -2.6357 H       1  UNL1        0.1503
     25 H           0.2332    3.3143    1.8234 H       1  UNL1        0.0514
     26 H           0.0178    4.9241    1.0953 H       1  UNL1        0.0514
     27 H          -1.9215    6.2838    1.6380 H       1  UNL1        0.0621
     28 H          -3.6538    6.8074    3.3078 H       1  UNL1        0.0623
     29 H          -3.1258    2.9564    5.0629 H       1  UNL1        0.0623
     30 H          -1.3962    2.4314    3.3907 H       1  UNL1        0.0621
@<TRIPOS>BOND
     1     1     2   ar
     2     2     3   ar
     3     2     4    1
     4     4     5    1
     5     4    10    1
     6     4     6    1
     7     6     7    1
     8     6    22    1
     9     6    23    1
    10     7     8   am
    11     7    24    1
    12     8     9    2
    13     8    10   am
    14    10    11    1
    15    11    12    1
    16    11    25    1
    17    11    26    1
    18    12    21   ar
    19    12    13   ar
    20    13    14   ar
    21    13    27    1
    22    14    15   ar
    23    14    28    1
    24    15    16    1
    25    15    20   ar
    26    16    17    1
    27    16    18    1
    28    16    19    1
    29    20    21   ar
    30    20    29    1
    31    21    30    1
