@<TRIPOS>MOLECULE
ZINC000096120094
 50 51 0 0 0
SMALL
GASTEIGER

@<TRIPOS>ATOM
      1 C           0.5195    1.5871   -0.2735 C.3     1  UNL1       -0.0405
      2 C           0.0011    0.1559   -0.1188 C.3     1  UNL1        0.0798
      3 C           0.5702   -0.4569    1.1624 C.3     1  UNL1       -0.0405
      4 C          -1.5269    0.1725   -0.0412 C.3     1  UNL1       -0.0405
      5 S           0.5233   -0.8340   -1.5464 S.O2    1  UNL1       -0.0219
      6 O           0.2812   -2.2046   -1.2599 O.2     1  UNL1       -0.1735
      7 O          -0.0336   -0.2621   -2.7220 O.2     1  UNL1       -0.1735
      8 C           2.3156   -0.5544   -1.5608 C.3     1  UNL1        0.0945
      9 H           2.5441    0.5069   -1.4636 H       1  UNL1        0.0552
     10 C           3.0159   -1.3783   -0.4481 C.3     1  UNL1       -0.0133
     11 C           4.4402   -1.5754   -1.0085 C.3     1  UNL1        0.0165
     12 N           4.3620   -1.4105   -2.4674 N.am    1  UNL1       -0.2996
     13 C           5.4000   -1.4882   -3.3234 C.2     1  UNL1        0.2159
     14 O           5.2180   -1.3352   -4.5127 O.2     1  UNL1       -0.2756
     15 C           6.7868   -1.7654   -2.8029 C.3     1  UNL1        0.0281
     16 C           7.7726   -1.8021   -3.9724 C.3     1  UNL1       -0.0194
     17 C           9.1595   -2.0792   -3.4519 C.ar    1  UNL1       -0.0469
     18 C           9.9825   -1.0308   -3.0855 C.ar    1  UNL1       -0.0580
     19 C          11.2546   -1.2850   -2.6080 C.ar    1  UNL1       -0.0499
     20 C          11.7035   -2.5877   -2.4966 C.ar    1  UNL1        0.0548
     21 C          13.0906   -2.8648   -1.9765 C.3     1  UNL1        0.4174
     22 F          13.0471   -3.0082   -0.5856 F       1  UNL1       -0.1659
     23 F          13.5775   -4.0434   -2.5519 F       1  UNL1       -0.1659
     24 F          13.9348   -1.8000   -2.3094 F       1  UNL1       -0.1659
     25 C          10.8800   -3.6362   -2.8618 C.ar    1  UNL1       -0.0499
     26 C           9.6065   -3.3821   -3.3356 C.ar    1  UNL1       -0.0580
     27 C           2.9596   -1.1463   -2.8393 C.3     1  UNL1        0.0369
     28 H           1.6080    1.5752   -0.3288 H       1  UNL1        0.0251
     29 H           0.1140    2.0237   -1.1863 H       1  UNL1        0.0251
     30 H           0.2057    2.1819    0.5843 H       1  UNL1        0.0251
     31 H           0.1359    0.0429    2.0282 H       1  UNL1        0.0251
     32 H           0.3272   -1.5190    1.1962 H       1  UNL1        0.0251
     33 H           1.6529   -0.3313    1.1754 H       1  UNL1        0.0251
     34 H          -1.9323    0.6091   -0.9540 H       1  UNL1        0.0251
     35 H          -1.8961   -0.8471    0.0690 H       1  UNL1        0.0251
     36 H          -1.8406    0.7673    0.8166 H       1  UNL1        0.0251
     37 H           3.0434   -0.8185    0.4868 H       1  UNL1        0.0299
     38 H           2.5197   -2.3388   -0.3092 H       1  UNL1        0.0299
     39 H           5.1115   -0.8276   -0.5864 H       1  UNL1        0.0465
     40 H           4.7982   -2.5763   -0.7673 H       1  UNL1        0.0465
     41 H           7.0778   -0.9784   -2.1071 H       1  UNL1        0.0362
     42 H           6.7967   -2.7266   -2.2891 H       1  UNL1        0.0362
     43 H           7.4817   -2.5891   -4.6683 H       1  UNL1        0.0318
     44 H           7.7628   -0.8409   -4.4863 H       1  UNL1        0.0318
     45 H           9.6318   -0.0131   -3.1726 H       1  UNL1        0.0620
     46 H          11.8979   -0.4659   -2.3224 H       1  UNL1        0.0623
     47 H          11.2306   -4.6539   -2.7743 H       1  UNL1        0.0623
     48 H           8.9631   -4.2013   -3.6209 H       1  UNL1        0.0620
     49 H           2.4605   -2.0737   -3.1202 H       1  UNL1        0.0483
     50 H           2.9131   -0.4268   -3.6568 H       1  UNL1        0.0483
@<TRIPOS>BOND
     1     1     2    1
     2     1    28    1
     3     1    29    1
     4     1    30    1
     5     2     3    1
     6     2     4    1
     7     2     5    1
     8     3    31    1
     9     3    32    1
    10     3    33    1
    11     4    34    1
    12     4    35    1
    13     4    36    1
    14     5     6    2
    15     5     7    2
    16     5     8    1
    17     8     9    1
    18     8    27    1
    19     8    10    1
    20    10    11    1
    21    10    37    1
    22    10    38    1
    23    11    12    1
    24    11    39    1
    25    11    40    1
    26    12    13   am
    27    12    27    1
    28    13    14    2
    29    13    15    1
    30    15    16    1
    31    15    41    1
    32    15    42    1
    33    16    17    1
    34    16    43    1
    35    16    44    1
    36    17    26   ar
    37    17    18   ar
    38    18    19   ar
    39    18    45    1
    40    19    20   ar
    41    19    46    1
    42    20    21    1
    43    20    25   ar
    44    21    22    1
    45    21    23    1
    46    21    24    1
    47    25    26   ar
    48    25    47    1
    49    26    48    1
    50    27    49    1
    51    27    50    1
