@<TRIPOS>MOLECULE
ZINC000757186023
 24 25 0 0 0
SMALL
GASTEIGER

@<TRIPOS>ATOM
      1 O           0.0021   -0.0041    0.0020 O.2     1  UNL1       -0.1528
      2 S          -0.0172    1.4168    0.0098 S.O2    1  UNL1        0.0609
      3 O           1.1617    2.2101    0.0028 O.2     1  UNL1       -0.1528
      4 C          -0.9567    1.9094   -1.3970 C.ar    1  UNL1        0.1055
      5 C          -1.8848    1.0442   -1.9458 C.ar    1  UNL1       -0.0348
      6 C          -2.6219    1.4307   -3.0496 C.ar    1  UNL1       -0.0483
      7 C          -2.4313    2.6825   -3.6042 C.ar    1  UNL1        0.0549
      8 C          -3.2345    3.1036   -4.8078 C.3     1  UNL1        0.4174
      9 F          -4.4138    3.7273   -4.3864 F       1  UNL1       -0.1659
     10 F          -2.4843    3.9973   -5.5796 F       1  UNL1       -0.1659
     11 F          -3.5510    1.9771   -5.5746 F       1  UNL1       -0.1659
     12 C          -1.5042    3.5481   -3.0546 C.ar    1  UNL1       -0.0483
     13 C          -0.7699    3.1631   -1.9485 C.ar    1  UNL1       -0.0348
     14 N          -0.8748    1.8654    1.3536 N.3     1  UNL1       -0.1740
     15 C          -1.1713    2.8839    2.3640 C.3     1  UNL1        0.0349
     16 C          -1.8767    1.5262    2.3671 C.3     1  UNL1        0.0349
     17 H          -2.0336    0.0662   -1.5125 H       1  UNL1        0.0637
     18 H          -3.3464    0.7545   -3.4788 H       1  UNL1        0.0624
     19 H          -1.3556    4.5263   -3.4877 H       1  UNL1        0.0624
     20 H          -0.0456    3.8394   -1.5191 H       1  UNL1        0.0637
     21 H          -0.4197    3.0688    3.1315 H       1  UNL1        0.0457
     22 H          -1.7527    3.7515    2.0521 H       1  UNL1        0.0457
     23 H          -2.9211    1.4982    2.0563 H       1  UNL1        0.0457
     24 H          -1.5931    0.8108    3.1390 H       1  UNL1        0.0457
@<TRIPOS>BOND
     1     1     2    2
     2     2     3    2
     3     2     4    1
     4     2    14    1
     5     4    13   ar
     6     4     5   ar
     7     5     6   ar
     8     5    17    1
     9     6     7   ar
    10     6    18    1
    11     7     8    1
    12     7    12   ar
    13     8     9    1
    14     8    10    1
    15     8    11    1
    16    12    13   ar
    17    12    19    1
    18    13    20    1
    19    14    16    1
    20    14    15    1
    21    15    16    1
    22    15    21    1
    23    15    22    1
    24    16    23    1
    25    16    24    1
