@<TRIPOS>MOLECULE
ZINC000032926714
 46 47 0 0 0
SMALL
GASTEIGER

@<TRIPOS>ATOM
      1 C          -0.0187    1.5258    0.0104 C.3     1  UNL1       -0.0343
      2 C           0.0021   -0.0041    0.0020 C.3     1  UNL1        0.1495
      3 H           0.5293   -0.3651    0.8851 H       1  UNL1        0.0630
      4 C          -1.4117   -0.5257    0.0127 C.2     1  UNL1        0.2396
      5 O          -1.9274   -0.9011   -1.0188 O.2     1  UNL1       -0.2735
      6 N          -2.1031   -0.5750    1.1686 N.am    1  UNL1       -0.2974
      7 C          -1.4932   -0.1177    2.4251 C.3     1  UNL1        0.0292
      8 C          -2.4002    0.9494    3.0503 C.3     1  UNL1        0.0363
      9 N          -3.7778    0.4379    3.0767 N.3     1  UNL1       -0.1736
     10 S          -4.6276    0.3783    4.4967 S.O2    1  UNL1        0.0610
     11 O          -5.6268   -0.6173    4.3249 O.2     1  UNL1       -0.1528
     12 O          -3.6636    0.3401    5.5400 O.2     1  UNL1       -0.1528
     13 C          -5.4776    1.9131    4.6606 C.ar    1  UNL1        0.1060
     14 C          -4.8686    2.9753    5.3018 C.ar    1  UNL1       -0.0353
     15 C          -5.5355    4.1795    5.4304 C.ar    1  UNL1       -0.0594
     16 C          -6.8110    4.3213    4.9173 C.ar    1  UNL1       -0.0500
     17 C          -7.4198    3.2591    4.2751 C.ar    1  UNL1        0.0567
     18 C          -8.8108    3.4135    3.7162 C.3     1  UNL1        0.4175
     19 F          -9.2734    4.7096    3.9682 F       1  UNL1       -0.1659
     20 F          -8.7864    3.1872    2.3358 F       1  UNL1       -0.1659
     21 F          -9.6638    2.4872    4.3256 F       1  UNL1       -0.1659
     22 C          -6.7515    2.0565    4.1428 C.ar    1  UNL1       -0.0237
     23 C          -4.3877   -0.0194    1.8202 C.3     1  UNL1        0.0363
     24 C          -3.4826   -1.0812    1.1940 C.3     1  UNL1        0.0292
     25 S           0.8511   -0.5891   -1.4904 S.O2    1  UNL1       -0.0228
     26 C           2.4989    0.1441   -1.2958 C.3     1  UNL1        0.0553
     27 O           0.9731   -2.0029   -1.4171 O.2     1  UNL1       -0.1739
     28 O           0.2267   -0.0045   -2.6251 O.2     1  UNL1       -0.1739
     29 H           1.0039    1.9031    0.0027 H       1  UNL1        0.0253
     30 H          -0.5459    1.8868   -0.8726 H       1  UNL1        0.0253
     31 H          -0.5289    1.8773    0.9072 H       1  UNL1        0.0253
     32 H          -1.3924   -0.9593    3.1103 H       1  UNL1        0.0478
     33 H          -0.5118    0.3105    2.2207 H       1  UNL1        0.0478
     34 H          -2.0691    1.1610    4.0669 H       1  UNL1        0.0459
     35 H          -2.3595    1.8600    2.4526 H       1  UNL1        0.0459
     36 H          -3.8719    2.8645    5.7027 H       1  UNL1        0.0637
     37 H          -5.0599    5.0093    5.9320 H       1  UNL1        0.0618
     38 H          -7.3322    5.2618    5.0184 H       1  UNL1        0.0623
     39 H          -7.2271    1.2267    3.6412 H       1  UNL1        0.0642
     40 H          -5.3690   -0.4476    2.0245 H       1  UNL1        0.0459
     41 H          -4.4885    0.8222    1.1350 H       1  UNL1        0.0459
     42 H          -3.8149   -1.2919    0.1775 H       1  UNL1        0.0478
     43 H          -3.5211   -1.9927    1.7905 H       1  UNL1        0.0478
     44 H           2.9527   -0.2214   -0.3746 H       1  UNL1        0.0464
     45 H           3.1235   -0.1355   -2.1443 H       1  UNL1        0.0464
     46 H           2.4107    1.2296   -1.2517 H       1  UNL1        0.0464
@<TRIPOS>BOND
     1     1     2    1
     2     1    29    1
     3     1    30    1
     4     1    31    1
     5     2     3    1
     6     2     4    1
     7    25     2    1
     8     4     5    2
     9     4     6   am
    10     6    24    1
    11     6     7    1
    12     7     8    1
    13     7    32    1
    14     7    33    1
    15     8     9    1
    16     8    34    1
    17     8    35    1
    18    10     9    1
    19     9    23    1
    20    10    11    2
    21    10    12    2
    22    10    13    1
    23    13    22   ar
    24    13    14   ar
    25    14    15   ar
    26    14    36    1
    27    15    16   ar
    28    15    37    1
    29    16    17   ar
    30    16    38    1
    31    17    18    1
    32    17    22   ar
    33    18    19    1
    34    18    20    1
    35    18    21    1
    36    22    39    1
    37    23    24    1
    38    23    40    1
    39    23    41    1
    40    24    42    1
    41    24    43    1
    42    25    26    1
    43    25    27    2
    44    25    28    2
    45    26    44    1
    46    26    45    1
    47    26    46    1
