@<TRIPOS>MOLECULE
ZINC000028207635
 54 55 0 0 0
SMALL
GASTEIGER

@<TRIPOS>ATOM
      1 C          -0.0187    1.5258    0.0104 C.3     1  UNL1       -0.0507
      2 C           0.0021   -0.0041    0.0020 C.3     1  UNL1        0.0177
      3 N           0.7106   -0.4894    1.1889 N.3     1  UNL1       -0.1771
      4 C          -0.0062   -0.6460    2.4569 C.3     1  UNL1        0.0177
      5 C          -0.6935   -2.0126    2.4888 C.3     1  UNL1       -0.0507
      6 S           2.3218   -0.8609    1.0971 S.O2    1  UNL1        0.0608
      7 O           2.5823   -1.7795    2.1496 O.2     1  UNL1       -0.1528
      8 O           2.5905   -1.1471   -0.2686 O.2     1  UNL1       -0.1528
      9 C           3.2182    0.6060    1.4837 C.ar    1  UNL1        0.1060
     10 C           3.5681    1.4863    0.4769 C.ar    1  UNL1       -0.0319
     11 C           4.2706    2.6375    0.7775 C.ar    1  UNL1       -0.0178
     12 C           4.6247    2.9095    2.0908 C.ar    1  UNL1        0.1242
     13 O           5.3153    4.0413    2.3891 O.3     1  UNL1       -0.4825
     14 C           5.6438    4.9068    1.3004 C.3     1  UNL1        0.1652
     15 C           6.4031    6.1006    1.8192 C.2     1  UNL1        0.2507
     16 O           6.6397    6.2005    3.0045 O.2     1  UNL1       -0.2721
     17 N           6.8193    7.0573    0.9660 N.am    1  UNL1       -0.3100
     18 C           7.5575    8.2179    1.4704 C.3     1  UNL1        0.0380
     19 C           7.9092    9.1445    0.3048 C.3     1  UNL1        0.0742
     20 H           7.0023    9.4781   -0.1995 H       1  UNL1        0.0611
     21 C           8.7215   10.3625    0.8122 C.3     1  UNL1       -0.0231
     22 C           9.4873   10.7642   -0.4778 C.3     1  UNL1       -0.0271
     23 C           9.7371    9.3970   -1.1498 C.3     1  UNL1        0.0482
     24 O           8.7766    8.4724   -0.6222 O.3     1  UNL1       -0.3750
     25 C           4.2723    2.0243    3.0995 C.ar    1  UNL1       -0.0069
     26 C           4.6549    2.3170    4.5274 C.3     1  UNL1       -0.0362
     27 C           3.5654    0.8775    2.7945 C.ar    1  UNL1       -0.0290
     28 H           1.0039    1.9031    0.0027 H       1  UNL1        0.0243
     29 H          -0.5459    1.8868   -0.8726 H       1  UNL1        0.0243
     30 H          -0.5289    1.8773    0.9072 H       1  UNL1        0.0243
     31 H          -1.0205   -0.3814    0.0098 H       1  UNL1        0.0441
     32 H           0.5123   -0.3556   -0.8948 H       1  UNL1        0.0441
     33 H           0.6997   -0.5749    3.2845 H       1  UNL1        0.0441
     34 H          -0.7557    0.1399    2.5501 H       1  UNL1        0.0441
     35 H          -1.3993   -2.0837    1.6613 H       1  UNL1        0.0243
     36 H           0.0560   -2.7985    2.3957 H       1  UNL1        0.0243
     37 H          -1.2268   -2.1291    3.4323 H       1  UNL1        0.0243
     38 H           3.2925    1.2739   -0.5455 H       1  UNL1        0.0638
     39 H           4.5441    3.3248   -0.0094 H       1  UNL1        0.0655
     40 H           6.2609    4.3680    0.5814 H       1  UNL1        0.0795
     41 H           4.7279    5.2421    0.8137 H       1  UNL1        0.0795
     42 H           6.6301    6.9774    0.0180 H       1  UNL1        0.1489
     43 H           6.9403    8.7566    2.1893 H       1  UNL1        0.0487
     44 H           8.4734    7.8825    1.9570 H       1  UNL1        0.0487
     45 H           8.0617   11.1644    1.1432 H       1  UNL1        0.0291
     46 H           9.4117   10.0720    1.6043 H       1  UNL1        0.0291
     47 H           8.8711   11.4014   -1.1122 H       1  UNL1        0.0288
     48 H          10.4297   11.2540   -0.2329 H       1  UNL1        0.0288
     49 H           9.6086    9.4861   -2.2285 H       1  UNL1        0.0560
     50 H          10.7463    9.0527   -0.9236 H       1  UNL1        0.0560
     51 H           3.8621    2.8923    5.0054 H       1  UNL1        0.0279
     52 H           4.7980    1.3795    5.0647 H       1  UNL1        0.0279
     53 H           5.5814    2.8909    4.5449 H       1  UNL1        0.0279
     54 H           3.2905    0.1883    3.5793 H       1  UNL1        0.0641
@<TRIPOS>BOND
     1     1     2    1
     2     1    28    1
     3     1    29    1
     4     1    30    1
     5     2     3    1
     6     2    31    1
     7     2    32    1
     8     3     4    1
     9     6     3    1
    10     4     5    1
    11     4    33    1
    12     4    34    1
    13     5    35    1
    14     5    36    1
    15     5    37    1
    16     6     7    2
    17     6     8    2
    18     6     9    1
    19     9    27   ar
    20     9    10   ar
    21    10    11   ar
    22    10    38    1
    23    11    12   ar
    24    11    39    1
    25    12    13    1
    26    12    25   ar
    27    13    14    1
    28    14    15    1
    29    14    40    1
    30    14    41    1
    31    15    16    2
    32    15    17   am
    33    17    18    1
    34    17    42    1
    35    18    19    1
    36    18    43    1
    37    18    44    1
    38    19    20    1
    39    19    24    1
    40    19    21    1
    41    21    22    1
    42    21    45    1
    43    21    46    1
    44    22    23    1
    45    22    47    1
    46    22    48    1
    47    23    24    1
    48    23    49    1
    49    23    50    1
    50    25    26    1
    51    25    27   ar
    52    26    51    1
    53    26    52    1
    54    26    53    1
    55    27    54    1
