@<TRIPOS>MOLECULE
ZINC000408617619
 53 54 0 0 0
SMALL
GASTEIGER

@<TRIPOS>ATOM
      1 C          -0.0173    1.4248    0.0099 C.3     1  UNL1        0.0365
      2 O           0.0021   -0.0041    0.0020 O.3     1  UNL1       -0.3812
      3 C           0.6734   -0.5824    1.1231 C.3     1  UNL1        0.0654
      4 C           0.6327   -2.1077    1.0107 C.3     1  UNL1        0.0437
      5 H           1.2199   -2.5473    1.8170 H       1  UNL1        0.0518
      6 C           1.2166   -2.5355   -0.3372 C.3     1  UNL1       -0.0445
      7 N          -0.7546   -2.5679    1.1100 N.am    1  UNL1       -0.3094
      8 C          -1.0210   -3.8180    1.5375 C.2     1  UNL1        0.2291
      9 O          -0.1122   -4.5620    1.8399 O.2     1  UNL1       -0.2743
     10 C          -2.4481   -4.2913    1.6397 C.3     1  UNL1        0.0971
     11 N          -2.4706   -5.6735    2.1246 N.3     1  UNL1       -0.1635
     12 C          -2.4250   -5.9460    3.5633 C.3     1  UNL1        0.0460
     13 C          -3.8187   -5.8762    4.1322 C.ar    1  UNL1       -0.0317
     14 C          -4.3132   -4.6748    4.6045 C.ar    1  UNL1       -0.0573
     15 C          -5.5916   -4.6109    5.1263 C.ar    1  UNL1       -0.0615
     16 C          -6.3758   -5.7482    5.1755 C.ar    1  UNL1       -0.0617
     17 C          -5.8817   -6.9494    4.7024 C.ar    1  UNL1       -0.0615
     18 C          -4.6048   -7.0125    4.1766 C.ar    1  UNL1       -0.0573
     19 S          -2.5476   -6.9281    1.0463 S.O2    1  UNL1        0.0616
     20 O          -3.0987   -8.0310    1.7528 O.2     1  UNL1       -0.1528
     21 O          -3.1215   -6.4012   -0.1420 O.2     1  UNL1       -0.1528
     22 C          -0.8908   -7.3726    0.6441 C.ar    1  UNL1        0.1055
     23 C          -0.2498   -6.7622   -0.4177 C.ar    1  UNL1       -0.0351
     24 C           1.0501   -7.1109   -0.7333 C.ar    1  UNL1       -0.0570
     25 C           1.7092   -8.0697    0.0132 C.ar    1  UNL1       -0.0503
     26 C           3.1261   -8.4502   -0.3312 C.3     1  UNL1       -0.0397
     27 C           1.0687   -8.6791    1.0759 C.ar    1  UNL1       -0.0570
     28 C          -0.2299   -8.3276    1.3938 C.ar    1  UNL1       -0.0351
     29 H           1.0053    1.8021    0.0021 H       1  UNL1        0.0523
     30 H          -0.5445    1.7859   -0.8732 H       1  UNL1        0.0523
     31 H          -0.5275    1.7763    0.9067 H       1  UNL1        0.0523
     32 H           1.7103   -0.2468    1.1385 H       1  UNL1        0.0578
     33 H           0.1775   -0.2725    2.0430 H       1  UNL1        0.0578
     34 H           1.1876   -3.6222   -0.4173 H       1  UNL1        0.0248
     35 H           0.6294   -2.0960   -1.1435 H       1  UNL1        0.0248
     36 H           2.2488   -2.1932   -0.4112 H       1  UNL1        0.0248
     37 H          -1.4815   -1.9728    0.8682 H       1  UNL1        0.1491
     38 H          -2.9936   -3.6534    2.3351 H       1  UNL1        0.0539
     39 H          -2.9181   -4.2431    0.6574 H       1  UNL1        0.0539
     40 H          -2.0131   -6.9410    3.7318 H       1  UNL1        0.0493
     41 H          -1.7948   -5.2040    4.0537 H       1  UNL1        0.0493
     42 H          -3.7005   -3.7863    4.5661 H       1  UNL1        0.0621
     43 H          -5.9777   -3.6724    5.4960 H       1  UNL1        0.0618
     44 H          -7.3744   -5.6984    5.5839 H       1  UNL1        0.0618
     45 H          -6.4942   -7.8381    4.7411 H       1  UNL1        0.0618
     46 H          -4.2187   -7.9510    3.8069 H       1  UNL1        0.0621
     47 H          -0.7647   -6.0131   -1.0010 H       1  UNL1        0.0637
     48 H           1.5506   -6.6345   -1.5634 H       1  UNL1        0.0621
     49 H           3.8176   -7.8101    0.2168 H       1  UNL1        0.0278
     50 H           3.2996   -9.4908   -0.0573 H       1  UNL1        0.0278
     51 H           3.2859   -8.3248   -1.4021 H       1  UNL1        0.0278
     52 H           1.5837   -9.4278    1.6593 H       1  UNL1        0.0621
     53 H          -0.7303   -8.8037    2.2241 H       1  UNL1        0.0637
@<TRIPOS>BOND
     1     1     2    1
     2     1    29    1
     3     1    30    1
     4     1    31    1
     5     2     3    1
     6     3     4    1
     7     3    32    1
     8     3    33    1
     9     4     5    1
    10     4     6    1
    11     4     7    1
    12     6    34    1
    13     6    35    1
    14     6    36    1
    15     7     8   am
    16     7    37    1
    17     8     9    2
    18     8    10    1
    19    10    11    1
    20    10    38    1
    21    10    39    1
    22    11    12    1
    23    19    11    1
    24    12    13    1
    25    12    40    1
    26    12    41    1
    27    13    18   ar
    28    13    14   ar
    29    14    15   ar
    30    14    42    1
    31    15    16   ar
    32    15    43    1
    33    16    17   ar
    34    16    44    1
    35    17    18   ar
    36    17    45    1
    37    18    46    1
    38    19    20    2
    39    19    21    2
    40    19    22    1
    41    22    28   ar
    42    22    23   ar
    43    23    24   ar
    44    23    47    1
    45    24    25   ar
    46    24    48    1
    47    25    26    1
    48    25    27   ar
    49    26    49    1
    50    26    50    1
    51    26    51    1
    52    27    28   ar
    53    27    52    1
    54    28    53    1
