@<TRIPOS>MOLECULE
ZINC000000885023
 61 63 0 0 0
SMALL
GASTEIGER

@<TRIPOS>ATOM
      1 C           1.0261   -5.8997  -10.0417 C.3     1  UNL1        0.0790
      2 O           1.5296   -4.5675   -9.9243 O.3     1  UNL1       -0.4915
      3 C           1.7785   -4.1101   -8.6680 C.ar    1  UNL1        0.1616
      4 C           1.5488   -4.9275   -7.5734 C.ar    1  UNL1       -0.0145
      5 C           1.8029   -4.4610   -6.2967 C.ar    1  UNL1       -0.0317
      6 C           2.2856   -3.1796   -6.1092 C.ar    1  UNL1        0.1092
      7 S           2.6068   -2.5909   -4.4798 S.O2    1  UNL1        0.0617
      8 O           2.5221   -1.1738   -4.5412 O.2     1  UNL1       -0.1528
      9 O           1.8128   -3.3798   -3.6043 O.2     1  UNL1       -0.1528
     10 N           4.1853   -2.9504   -4.1310 N.3     1  UNL1       -0.1635
     11 C           4.5399   -4.2799   -3.6281 C.3     1  UNL1        0.0971
     12 C           4.9711   -5.1533   -4.7780 C.2     1  UNL1        0.2290
     13 O           4.9812   -4.7090   -5.9064 O.2     1  UNL1       -0.2743
     14 N           5.3455   -6.4283   -4.5524 N.am    1  UNL1       -0.3114
     15 C           5.7647   -7.2773   -5.6702 C.3     1  UNL1        0.0232
     16 C           7.2497   -7.0465   -5.9571 C.3     1  UNL1       -0.0345
     17 C           7.6875   -7.9332   -7.1245 C.3     1  UNL1       -0.0514
     18 C           7.4604   -9.4023   -6.7622 C.3     1  UNL1       -0.0529
     19 C           5.9754   -9.6331   -6.4753 C.3     1  UNL1       -0.0514
     20 C           5.5376   -8.7464   -5.3079 C.3     1  UNL1       -0.0345
     21 C           5.2271   -1.9389   -4.3253 C.3     1  UNL1        0.0460
     22 C           5.4921   -1.2336   -3.0201 C.ar    1  UNL1       -0.0317
     23 C           4.8523   -0.0415   -2.7364 C.ar    1  UNL1       -0.0573
     24 C           5.0954    0.6054   -1.5392 C.ar    1  UNL1       -0.0615
     25 C           5.9779    0.0601   -0.6256 C.ar    1  UNL1       -0.0617
     26 C           6.6170   -1.1325   -0.9090 C.ar    1  UNL1       -0.0615
     27 C           6.3706   -1.7816   -2.1043 C.ar    1  UNL1       -0.0573
     28 C           2.5176   -2.3587   -7.1975 C.ar    1  UNL1        0.0101
     29 C           2.2701   -2.8216   -8.4795 C.ar    1  UNL1        0.1633
     30 O           2.4977   -2.0155   -9.5509 O.3     1  UNL1       -0.4914
     31 C           2.9924   -0.7023   -9.2812 C.3     1  UNL1        0.0790
     32 H           1.7440   -6.5986   -9.6125 H       1  UNL1        0.0660
     33 H           0.0788   -5.9785   -9.5083 H       1  UNL1        0.0660
     34 H           0.8715   -6.1382  -11.0940 H       1  UNL1        0.0660
     35 H           1.1709   -5.9290   -7.7172 H       1  UNL1        0.0656
     36 H           1.6233   -5.0993   -5.4442 H       1  UNL1        0.0638
     37 H           5.3573   -4.1916   -2.9125 H       1  UNL1        0.0539
     38 H           3.6744   -4.7257   -3.1379 H       1  UNL1        0.0539
     39 H           5.3374   -6.7836   -3.6498 H       1  UNL1        0.1490
     40 H           5.1804   -7.0270   -6.5557 H       1  UNL1        0.0498
     41 H           7.4115   -5.9999   -6.2152 H       1  UNL1        0.0283
     42 H           7.8340   -7.2968   -5.0716 H       1  UNL1        0.0283
     43 H           7.1032   -7.6829   -8.0099 H       1  UNL1        0.0266
     44 H           8.7455   -7.7688   -7.3289 H       1  UNL1        0.0266
     45 H           7.7723  -10.0340   -7.5939 H       1  UNL1        0.0265
     46 H           8.0447   -9.6526   -5.8767 H       1  UNL1        0.0265
     47 H           5.3911   -9.3828   -7.3608 H       1  UNL1        0.0266
     48 H           5.8136  -10.6797   -6.2172 H       1  UNL1        0.0266
     49 H           6.1219   -8.9967   -4.4224 H       1  UNL1        0.0283
     50 H           4.4796   -8.9109   -5.1035 H       1  UNL1        0.0283
     51 H           6.1418   -2.4210   -4.6700 H       1  UNL1        0.0493
     52 H           4.8957   -1.2143   -5.0691 H       1  UNL1        0.0493
     53 H           4.1628    0.3846   -3.4501 H       1  UNL1        0.0621
     54 H           4.5961    1.5372   -1.3178 H       1  UNL1        0.0618
     55 H           6.1683    0.5659    0.3095 H       1  UNL1        0.0618
     56 H           7.3067   -1.5584   -0.1953 H       1  UNL1        0.0618
     57 H           6.8699   -2.7133   -2.3257 H       1  UNL1        0.0621
     58 H           2.8948   -1.3578   -7.0483 H       1  UNL1        0.0675
     59 H           3.1299   -0.1660  -10.2202 H       1  UNL1        0.0660
     60 H           2.2775   -0.1656   -8.6576 H       1  UNL1        0.0660
     61 H           3.9472   -0.7736   -8.7603 H       1  UNL1        0.0660
@<TRIPOS>BOND
     1     1     2    1
     2     1    32    1
     3     1    33    1
     4     1    34    1
     5     2     3    1
     6     3    29   ar
     7     3     4   ar
     8     4     5   ar
     9     4    35    1
    10     5     6   ar
    11     5    36    1
    12     6     7    1
    13     6    28   ar
    14     7     8    2
    15     7     9    2
    16     7    10    1
    17    10    11    1
    18    10    21    1
    19    11    12    1
    20    11    37    1
    21    11    38    1
    22    12    13    2
    23    12    14   am
    24    14    15    1
    25    14    39    1
    26    15    20    1
    27    15    16    1
    28    15    40    1
    29    16    17    1
    30    16    41    1
    31    16    42    1
    32    17    18    1
    33    17    43    1
    34    17    44    1
    35    18    19    1
    36    18    45    1
    37    18    46    1
    38    19    20    1
    39    19    47    1
    40    19    48    1
    41    20    49    1
    42    20    50    1
    43    21    22    1
    44    21    51    1
    45    21    52    1
    46    22    27   ar
    47    22    23   ar
    48    23    24   ar
    49    23    53    1
    50    24    25   ar
    51    24    54    1
    52    25    26   ar
    53    25    55    1
    54    26    27   ar
    55    26    56    1
    56    27    57    1
    57    28    29   ar
    58    28    58    1
    59    29    30    1
    60    30    31    1
    61    31    59    1
    62    31    60    1
    63    31    61    1
