@<TRIPOS>MOLECULE
ZINC000001050577
 51 53 0 0 0
SMALL
GASTEIGER

@<TRIPOS>ATOM
      1 C          -9.0479   -6.1174    4.1559 C.3     1  UNL1        0.0788
      2 O          -9.2316   -4.7919    3.6545 O.3     1  UNL1       -0.4948
      3 C          -8.2799   -4.3143    2.8100 C.ar    1  UNL1        0.1231
      4 C          -7.1948   -5.1071    2.4665 C.ar    1  UNL1       -0.0178
      5 C          -6.2288   -4.6194    1.6074 C.ar    1  UNL1       -0.0319
      6 C          -6.3429   -3.3422    1.0907 C.ar    1  UNL1        0.1060
      7 S          -5.1090   -2.7230   -0.0042 S.O2    1  UNL1        0.0616
      8 O          -5.1590   -1.3063    0.0950 O.2     1  UNL1       -0.1528
      9 O          -3.9325   -3.4787    0.2486 O.2     1  UNL1       -0.1528
     10 N          -5.5858   -3.1011   -1.5443 N.3     1  UNL1       -0.1635
     11 C          -5.2909   -4.4249   -2.0982 C.3     1  UNL1        0.0971
     12 C          -6.4777   -5.3308   -1.8937 C.2     1  UNL1        0.2290
     13 O          -7.4720   -4.9119   -1.3398 O.2     1  UNL1       -0.2743
     14 N          -6.4343   -6.6065   -2.3263 N.am    1  UNL1       -0.3114
     15 C          -7.5880   -7.4871   -2.1275 C.3     1  UNL1        0.0233
     16 C          -8.0085   -8.3760   -3.2997 C.3     1  UNL1       -0.0328
     17 C          -7.3264   -8.9938   -2.0774 C.3     1  UNL1       -0.0328
     18 C          -6.3025   -2.1118   -2.3529 C.3     1  UNL1        0.0460
     19 C          -5.3245   -1.3823   -3.2373 C.ar    1  UNL1       -0.0317
     20 C          -4.7921   -0.1736   -2.8293 C.ar    1  UNL1       -0.0573
     21 C          -3.8950    0.4956   -3.6406 C.ar    1  UNL1       -0.0615
     22 C          -3.5299   -0.0441   -4.8598 C.ar    1  UNL1       -0.0617
     23 C          -4.0616   -1.2533   -5.2674 C.ar    1  UNL1       -0.0615
     24 C          -4.9555   -1.9245   -4.4542 C.ar    1  UNL1       -0.0573
     25 C          -7.4240   -2.5500    1.4313 C.ar    1  UNL1       -0.0290
     26 C          -8.3950   -3.0349    2.2855 C.ar    1  UNL1       -0.0070
     27 C          -9.5732   -2.1712    2.6558 C.3     1  UNL1       -0.0362
     28 H          -9.8762   -6.3741    4.8163 H       1  UNL1        0.0660
     29 H          -9.0163   -6.8198    3.3229 H       1  UNL1        0.0660
     30 H          -8.1112   -6.1694    4.7108 H       1  UNL1        0.0660
     31 H          -7.1049   -6.1046    2.8705 H       1  UNL1        0.0655
     32 H          -5.3837   -5.2363    1.3397 H       1  UNL1        0.0638
     33 H          -5.0822   -4.3345   -3.1642 H       1  UNL1        0.0539
     34 H          -4.4217   -4.8451   -1.5922 H       1  UNL1        0.0539
     35 H          -5.6390   -6.9416   -2.7693 H       1  UNL1        0.1490
     36 H          -8.3765   -7.0916   -1.4872 H       1  UNL1        0.0498
     37 H          -9.0739   -8.5654   -3.4308 H       1  UNL1        0.0284
     38 H          -7.4267   -8.3056   -4.2188 H       1  UNL1        0.0284
     39 H          -6.2959   -9.3298   -2.1923 H       1  UNL1        0.0284
     40 H          -7.9431   -9.5895   -1.4044 H       1  UNL1        0.0284
     41 H          -7.0448   -2.6168   -2.9711 H       1  UNL1        0.0493
     42 H          -6.8010   -1.3985   -1.6966 H       1  UNL1        0.0493
     43 H          -5.0774    0.2481   -1.8768 H       1  UNL1        0.0621
     44 H          -3.4796    1.4403   -3.3221 H       1  UNL1        0.0618
     45 H          -2.8296    0.4791   -5.4939 H       1  UNL1        0.0618
     46 H          -3.7766   -1.6748   -6.2200 H       1  UNL1        0.0618
     47 H          -5.3709   -2.8692   -4.7726 H       1  UNL1        0.0621
     48 H          -7.5110   -1.5527    1.0260 H       1  UNL1        0.0641
     49 H         -10.3803   -2.3318    1.9411 H       1  UNL1        0.0279
     50 H          -9.9162   -2.4342    3.6565 H       1  UNL1        0.0279
     51 H          -9.2751   -1.1229    2.6378 H       1  UNL1        0.0279
@<TRIPOS>BOND
     1     1     2    1
     2     1    28    1
     3     1    29    1
     4     1    30    1
     5     2     3    1
     6     3    26   ar
     7     3     4   ar
     8     4     5   ar
     9     4    31    1
    10     5     6   ar
    11     5    32    1
    12     6     7    1
    13     6    25   ar
    14     7     8    2
    15     7     9    2
    16     7    10    1
    17    10    11    1
    18    10    18    1
    19    11    12    1
    20    11    33    1
    21    11    34    1
    22    12    13    2
    23    12    14   am
    24    14    15    1
    25    14    35    1
    26    15    17    1
    27    15    16    1
    28    15    36    1
    29    16    17    1
    30    16    37    1
    31    16    38    1
    32    17    39    1
    33    17    40    1
    34    18    19    1
    35    18    41    1
    36    18    42    1
    37    19    24   ar
    38    19    20   ar
    39    20    21   ar
    40    20    43    1
    41    21    22   ar
    42    21    44    1
    43    22    23   ar
    44    22    45    1
    45    23    24   ar
    46    23    46    1
    47    24    47    1
    48    25    26   ar
    49    25    48    1
    50    26    27    1
    51    27    49    1
    52    27    50    1
    53    27    51    1
