@<TRIPOS>MOLECULE
ZINC000026753611
 52 53 0 0 0
SMALL
GASTEIGER

@<TRIPOS>ATOM
      1 C          -0.7920    0.7722    0.2857 C.3     1  UNL1       -0.0605
      2 C          -0.2836   -0.6205   -0.0921 C.3     1  UNL1       -0.0197
      3 C          -1.4734   -1.5313   -0.4013 C.3     1  UNL1       -0.0605
      4 C           0.6145   -0.5180   -1.3266 C.3     1  UNL1        0.1033
      5 H           1.4606    0.1332   -1.1072 H       1  UNL1        0.0598
      6 N           1.1046   -1.8510   -1.6860 N.am    1  UNL1       -0.2880
      7 C           2.2043   -2.3489   -1.0867 C.2     1  UNL1        0.2977
      8 N           2.6551   -3.5752   -1.4173 N.am    1  UNL1       -0.3133
      9 O           2.7897   -1.6917   -0.2478 O.2     1  UNL1       -0.2531
     10 C          -0.1747    0.0538   -2.4760 C.2     1  UNL1        0.2363
     11 O          -0.8111   -0.6821   -3.2001 O.2     1  UNL1       -0.2736
     12 N          -0.1734    1.3830   -2.6992 N.am    1  UNL1       -0.2974
     13 C           0.5099    2.2964   -1.7725 C.3     1  UNL1        0.0292
     14 C           1.5163    3.1379   -2.5669 C.3     1  UNL1        0.0363
     15 N           0.8350    3.6998   -3.7416 N.3     1  UNL1       -0.1736
     16 S           0.8375    5.3328   -4.0165 S.O2    1  UNL1        0.0609
     17 O          -0.2945    5.6043   -4.8313 O.2     1  UNL1       -0.1528
     18 O           1.0540    5.9516   -2.7557 O.2     1  UNL1       -0.1528
     19 C           2.2554    5.6942   -4.9981 C.ar    1  UNL1        0.1055
     20 C           3.4589    5.9968   -4.3891 C.ar    1  UNL1       -0.0348
     21 C           4.5713    6.2804   -5.1592 C.ar    1  UNL1       -0.0483
     22 C           4.4803    6.2609   -6.5384 C.ar    1  UNL1        0.0549
     23 C           5.6928    6.5705   -7.3780 C.3     1  UNL1        0.4174
     24 F           6.3922    5.3878   -7.6412 F       1  UNL1       -0.1659
     25 F           5.2885    7.1516   -8.5847 F       1  UNL1       -0.1659
     26 F           6.5234    7.4597   -6.6875 F       1  UNL1       -0.1659
     27 C           3.2771    5.9570   -7.1475 C.ar    1  UNL1       -0.0483
     28 C           2.1657    5.6697   -6.3774 C.ar    1  UNL1       -0.0348
     29 C           0.1517    2.7864   -4.6683 C.3     1  UNL1        0.0363
     30 C          -0.8500    1.9443   -3.8769 C.3     1  UNL1        0.0292
     31 H           0.0496    1.3982    0.5824 H       1  UNL1        0.0233
     32 H          -1.2939    1.2208   -0.5717 H       1  UNL1        0.0233
     33 H          -1.4940    0.6900    1.1154 H       1  UNL1        0.0233
     34 H           0.2865   -1.0368    0.7384 H       1  UNL1        0.0318
     35 H          -2.0435   -1.1149   -1.2319 H       1  UNL1        0.0233
     36 H          -1.1112   -2.5235   -0.6705 H       1  UNL1        0.0233
     37 H          -2.1133   -1.6043    0.4781 H       1  UNL1        0.0233
     38 H           0.6375   -2.3753   -2.3552 H       1  UNL1        0.1510
     39 H           2.1881   -4.0995   -2.0866 H       1  UNL1        0.1465
     40 H           3.4466   -3.9336   -0.9860 H       1  UNL1        0.1465
     41 H          -0.2213    2.9513   -1.2988 H       1  UNL1        0.0478
     42 H           1.0354    1.7196   -1.0114 H       1  UNL1        0.0478
     43 H           1.8921    3.9468   -1.9403 H       1  UNL1        0.0459
     44 H           2.3447    2.5080   -2.8911 H       1  UNL1        0.0459
     45 H           3.5300    6.0120   -3.3115 H       1  UNL1        0.0637
     46 H           5.5114    6.5174   -4.6833 H       1  UNL1        0.0624
     47 H           3.2061    5.9415   -8.2250 H       1  UNL1        0.0624
     48 H           1.2257    5.4323   -6.8532 H       1  UNL1        0.0637
     49 H          -0.3738    3.3631   -5.4294 H       1  UNL1        0.0459
     50 H           0.8829    2.1314   -5.1420 H       1  UNL1        0.0459
     51 H          -1.2249    1.1359   -4.5046 H       1  UNL1        0.0478
     52 H          -1.6791    2.5724   -3.5511 H       1  UNL1        0.0478
@<TRIPOS>BOND
     1     1     2    1
     2     1    31    1
     3     1    32    1
     4     1    33    1
     5     2     3    1
     6     2     4    1
     7     2    34    1
     8     3    35    1
     9     3    36    1
    10     3    37    1
    11     4     5    1
    12     4     6    1
    13     4    10    1
    14     6     7   am
    15     6    38    1
    16     7     8   am
    17     7     9    2
    18     8    39    1
    19     8    40    1
    20    10    11    2
    21    10    12   am
    22    12    30    1
    23    12    13    1
    24    13    14    1
    25    13    41    1
    26    13    42    1
    27    14    15    1
    28    14    43    1
    29    14    44    1
    30    16    15    1
    31    15    29    1
    32    16    17    2
    33    16    18    2
    34    16    19    1
    35    19    28   ar
    36    19    20   ar
    37    20    21   ar
    38    20    45    1
    39    21    22   ar
    40    21    46    1
    41    22    23    1
    42    22    27   ar
    43    23    24    1
    44    23    25    1
    45    23    26    1
    46    27    28   ar
    47    27    47    1
    48    28    48    1
    49    29    30    1
    50    29    49    1
    51    29    50    1
    52    30    51    1
    53    30    52    1
