@<TRIPOS>MOLECULE
ZINC000161799806
 37 38 0 0 0
SMALL
GASTEIGER

@<TRIPOS>ATOM
      1 C          -0.0187    1.5258    0.0104 C.3     1  UNL1       -0.0348
      2 C           0.0021   -0.0041    0.0020 C.3     1  UNL1        0.0776
      3 O          -1.3383   -0.4993    0.0106 O.3     1  UNL1       -0.3875
      4 C           0.7218   -0.4982   -1.2549 C.3     1  UNL1       -0.0218
      5 C           0.7144   -2.0284   -1.2807 C.3     1  UNL1       -0.0359
      6 C           1.4633   -2.5595   -0.0544 C.3     1  UNL1        0.0207
      7 N           0.8674   -1.9735    1.1540 N.3     1  UNL1       -0.1739
      8 S           0.3465   -2.9416    2.3925 S.O2    1  UNL1        0.0609
      9 O          -0.6289   -2.1925    3.1043 O.2     1  UNL1       -0.1528
     10 O           0.0836   -4.2162    1.8221 O.2     1  UNL1       -0.1528
     11 C           1.7063   -3.1592    3.4917 C.ar    1  UNL1        0.1055
     12 C           2.5842   -4.2106    3.3053 C.ar    1  UNL1       -0.0348
     13 C           3.6510   -4.3814    4.1677 C.ar    1  UNL1       -0.0483
     14 C           3.8402   -3.5004    5.2161 C.ar    1  UNL1        0.0549
     15 C           5.0029   -3.6869    6.1565 C.3     1  UNL1        0.4174
     16 F           6.1113   -2.9834    5.6729 F       1  UNL1       -0.1659
     17 F           4.6601   -3.2031    7.4236 F       1  UNL1       -0.1659
     18 F           5.3168   -5.0473    6.2460 F       1  UNL1       -0.1659
     19 C           2.9630   -2.4483    5.4016 C.ar    1  UNL1       -0.0483
     20 C           1.8984   -2.2753    4.5370 C.ar    1  UNL1       -0.0348
     21 C           0.7429   -0.5122    1.2429 C.3     1  UNL1        0.0491
     22 H           1.0039    1.9031    0.0027 H       1  UNL1        0.0258
     23 H          -0.5459    1.8868   -0.8726 H       1  UNL1        0.0258
     24 H          -0.5289    1.8773    0.9072 H       1  UNL1        0.0258
     25 H          -1.8668   -0.2172   -0.7485 H       1  UNL1        0.2102
     26 H           0.2109   -0.1176   -2.1393 H       1  UNL1        0.0294
     27 H           1.7513   -0.1402   -1.2483 H       1  UNL1        0.0294
     28 H          -0.3146   -2.3876   -1.2624 H       1  UNL1        0.0279
     29 H           1.2066   -2.3794   -2.1878 H       1  UNL1        0.0279
     30 H           1.3762   -3.6453   -0.0150 H       1  UNL1        0.0444
     31 H           2.5142   -2.2771   -0.1174 H       1  UNL1        0.0444
     32 H           2.4364   -4.8988    2.4863 H       1  UNL1        0.0637
     33 H           4.3365   -5.2032    4.0226 H       1  UNL1        0.0624
     34 H           3.1110   -1.7598    6.2205 H       1  UNL1        0.0624
     35 H           1.2131   -1.4532    4.6819 H       1  UNL1        0.0637
     36 H           1.7350   -0.0629    1.2857 H       1  UNL1        0.0472
     37 H           0.1806   -0.2472    2.1382 H       1  UNL1        0.0472
@<TRIPOS>BOND
     1     1    22    1
     2     1    23    1
     3     1    24    1
     4     2     1    1
     5     2    21    1
     6     2     3    1
     7     2     4    1
     8     3    25    1
     9     4     5    1
    10     4    26    1
    11     4    27    1
    12     5     6    1
    13     5    28    1
    14     5    29    1
    15     6     7    1
    16     6    30    1
    17     6    31    1
    18     8     7    1
    19     7    21    1
    20     8     9    2
    21     8    10    2
    22     8    11    1
    23    11    20   ar
    24    11    12   ar
    25    12    13   ar
    26    12    32    1
    27    13    14   ar
    28    13    33    1
    29    14    15    1
    30    14    19   ar
    31    15    16    1
    32    15    17    1
    33    15    18    1
    34    19    20   ar
    35    19    34    1
    36    20    35    1
    37    21    36    1
    38    21    37    1
