@<TRIPOS>MOLECULE
ZINC000004122313
 46 47 0 0 0
SMALL
GASTEIGER

@<TRIPOS>ATOM
      1 C          -0.0187    1.5258    0.0104 C.3     1  UNL1       -0.0469
      2 C           0.0021   -0.0041    0.0020 C.3     1  UNL1        0.0175
      3 C           0.7421   -0.5109    1.2415 C.3     1  UNL1       -0.0469
      4 N          -1.3723   -0.5112    0.0124 N.am    1  UNL1       -0.3119
      5 C          -2.0508   -0.6427   -1.1446 C.2     1  UNL1        0.2290
      6 O          -1.5236   -0.3413   -2.1944 O.2     1  UNL1       -0.2743
      7 C          -3.4646   -1.1643   -1.1339 C.3     1  UNL1        0.0971
      8 N          -3.9776   -1.2130   -2.5053 N.3     1  UNL1       -0.1635
      9 C          -3.7030   -2.3787   -3.3491 C.3     1  UNL1        0.0460
     10 C          -4.7315   -3.4469   -3.0803 C.ar    1  UNL1       -0.0317
     11 C          -4.5071   -4.3901   -2.0949 C.ar    1  UNL1       -0.0573
     12 C          -5.4505   -5.3699   -1.8483 C.ar    1  UNL1       -0.0615
     13 C          -6.6185   -5.4063   -2.5867 C.ar    1  UNL1       -0.0617
     14 C          -6.8434   -4.4625   -3.5715 C.ar    1  UNL1       -0.0615
     15 C          -5.9018   -3.4801   -3.8152 C.ar    1  UNL1       -0.0573
     16 S          -4.8677    0.0496   -3.1018 S.O2    1  UNL1        0.0616
     17 O          -5.6571   -0.4796   -4.1582 O.2     1  UNL1       -0.1528
     18 O          -5.4223    0.7166   -1.9762 O.2     1  UNL1       -0.1528
     19 C          -3.7377    1.1801   -3.8431 C.ar    1  UNL1        0.1055
     20 C          -3.1777    2.1931   -3.0874 C.ar    1  UNL1       -0.0353
     21 C          -2.2912    3.0801   -3.6691 C.ar    1  UNL1       -0.0599
     22 C          -1.9643    2.9537   -5.0063 C.ar    1  UNL1       -0.0616
     23 C          -2.5237    1.9402   -5.7617 C.ar    1  UNL1       -0.0599
     24 C          -3.4069    1.0506   -5.1791 C.ar    1  UNL1       -0.0353
     25 H           1.0039    1.9031    0.0027 H       1  UNL1        0.0247
     26 H          -0.5459    1.8868   -0.8726 H       1  UNL1        0.0247
     27 H          -0.5289    1.8773    0.9072 H       1  UNL1        0.0247
     28 H           0.5123   -0.3556   -0.8948 H       1  UNL1        0.0493
     29 H           0.2319   -0.1594    2.1383 H       1  UNL1        0.0247
     30 H           0.7568   -1.6008    1.2356 H       1  UNL1        0.0247
     31 H           1.7647   -0.1336    1.2338 H       1  UNL1        0.0247
     32 H          -1.7940   -0.7522    0.8520 H       1  UNL1        0.1490
     33 H          -3.4790   -2.1662   -0.7048 H       1  UNL1        0.0539
     34 H          -4.0912   -0.5035   -0.5349 H       1  UNL1        0.0539
     35 H          -3.7483   -2.0866   -4.3983 H       1  UNL1        0.0493
     36 H          -2.7096   -2.7656   -3.1222 H       1  UNL1        0.0493
     37 H          -3.5945   -4.3617   -1.5180 H       1  UNL1        0.0621
     38 H          -5.2749   -6.1072   -1.0789 H       1  UNL1        0.0618
     39 H          -7.3553   -6.1722   -2.3945 H       1  UNL1        0.0618
     40 H          -7.7558   -4.4912   -4.1486 H       1  UNL1        0.0618
     41 H          -6.0775   -2.7428   -4.5845 H       1  UNL1        0.0621
     42 H          -3.4330    2.2918   -2.0427 H       1  UNL1        0.0637
     43 H          -1.8541    3.8719   -3.0788 H       1  UNL1        0.0618
     44 H          -1.2723    3.6471   -5.4609 H       1  UNL1        0.0618
     45 H          -2.2686    1.8417   -6.8066 H       1  UNL1        0.0618
     46 H          -3.8440    0.2588   -5.7693 H       1  UNL1        0.0637
@<TRIPOS>BOND
     1     1     2    1
     2     1    25    1
     3     1    26    1
     4     1    27    1
     5     2     3    1
     6     2     4    1
     7     2    28    1
     8     3    29    1
     9     3    30    1
    10     3    31    1
    11     4     5   am
    12     4    32    1
    13     5     6    2
    14     5     7    1
    15     7     8    1
    16     7    33    1
    17     7    34    1
    18     8     9    1
    19    16     8    1
    20     9    10    1
    21     9    35    1
    22     9    36    1
    23    10    15   ar
    24    10    11   ar
    25    11    12   ar
    26    11    37    1
    27    12    13   ar
    28    12    38    1
    29    13    14   ar
    30    13    39    1
    31    14    15   ar
    32    14    40    1
    33    15    41    1
    34    16    17    2
    35    16    18    2
    36    16    19    1
    37    19    24   ar
    38    19    20   ar
    39    20    21   ar
    40    20    42    1
    41    21    22   ar
    42    21    43    1
    43    22    23   ar
    44    22    44    1
    45    23    24   ar
    46    23    45    1
    47    24    46    1
