@<TRIPOS>MOLECULE
ZINC000028208416
 48 48 0 0 0
SMALL
GASTEIGER

@<TRIPOS>ATOM
      1 C          -0.0187    1.5258    0.0104 C.3     1  UNL1       -0.0652
      2 C           0.0021   -0.0041    0.0020 C.3     1  UNL1       -0.0542
      3 C          -1.4333   -0.5336    0.0129 C.3     1  UNL1       -0.0350
      4 C          -1.4126   -2.0635    0.0045 C.3     1  UNL1        0.0203
      5 H          -0.8263   -2.4142   -0.8449 H       1  UNL1        0.0495
      6 C          -2.8437   -2.5923   -0.1104 C.3     1  UNL1       -0.0466
      7 N          -0.8103   -2.5505    1.2480 N.am    1  UNL1       -0.3127
      8 C          -0.2268   -3.7649    1.2837 C.2     1  UNL1        0.2135
      9 O          -0.2003   -4.4545    0.2863 O.2     1  UNL1       -0.2758
     10 C           0.3926   -4.2659    2.5628 C.3     1  UNL1        0.0279
     11 C           0.9811   -5.6594    2.3329 C.3     1  UNL1       -0.0194
     12 C           1.6005   -6.1604    3.6121 C.ar    1  UNL1       -0.0468
     13 C           2.9282   -5.8924    3.8883 C.ar    1  UNL1       -0.0567
     14 C           3.4965   -6.3520    5.0617 C.ar    1  UNL1       -0.0351
     15 C           2.7369   -7.0792    5.9590 C.ar    1  UNL1        0.1055
     16 S           3.4614   -7.6655    7.4543 S.O2    1  UNL1        0.0604
     17 O           2.6817   -8.7790    7.8683 O.2     1  UNL1       -0.1529
     18 O           4.8608   -7.7409    7.2196 O.2     1  UNL1       -0.1529
     19 N           3.2420   -6.4894    8.5993 N.3     1  UNL1       -0.1827
     20 C           2.0389   -6.4961    9.4351 C.3     1  UNL1        0.0086
     21 C           4.2511   -5.4423    8.7765 C.3     1  UNL1        0.0086
     22 C           1.4089   -7.3460    5.6834 C.ar    1  UNL1       -0.0351
     23 C           0.8396   -6.8832    4.5118 C.ar    1  UNL1       -0.0567
     24 H           1.0039    1.9031    0.0027 H       1  UNL1        0.0230
     25 H          -0.5459    1.8868   -0.8726 H       1  UNL1        0.0230
     26 H          -0.5289    1.8773    0.9072 H       1  UNL1        0.0230
     27 H           0.5123   -0.3556   -0.8948 H       1  UNL1        0.0263
     28 H           0.5293   -0.3651    0.8851 H       1  UNL1        0.0263
     29 H          -1.9435   -0.1821    0.9097 H       1  UNL1        0.0283
     30 H          -1.9605   -0.1726   -0.8702 H       1  UNL1        0.0283
     31 H          -3.2917   -2.2299   -1.0357 H       1  UNL1        0.0247
     32 H          -2.8289   -3.6822   -0.1164 H       1  UNL1        0.0247
     33 H          -3.4299   -2.2416    0.7389 H       1  UNL1        0.0247
     34 H          -0.8315   -1.9990    2.0457 H       1  UNL1        0.1490
     35 H           1.1840   -3.5843    2.8746 H       1  UNL1        0.0361
     36 H          -0.3698   -4.3172    3.3401 H       1  UNL1        0.0361
     37 H           0.1897   -6.3411    2.0211 H       1  UNL1        0.0318
     38 H           1.7436   -5.6081    1.5557 H       1  UNL1        0.0318
     39 H           3.5217   -5.3243    3.1873 H       1  UNL1        0.0621
     40 H           4.5340   -6.1432    5.2772 H       1  UNL1        0.0637
     41 H           2.2250   -7.0820   10.3353 H       1  UNL1        0.0408
     42 H           1.7840   -5.4735    9.7134 H       1  UNL1        0.0408
     43 H           1.2123   -6.9379    8.8786 H       1  UNL1        0.0408
     44 H           4.0169   -4.5984    8.1276 H       1  UNL1        0.0408
     45 H           4.2536   -5.1121    9.8153 H       1  UNL1        0.0408
     46 H           5.2338   -5.8372    8.5184 H       1  UNL1        0.0408
     47 H           0.8153   -7.9139    6.3846 H       1  UNL1        0.0637
     48 H          -0.1980   -7.0916    4.2964 H       1  UNL1        0.0621
@<TRIPOS>BOND
     1     1     2    1
     2     1    24    1
     3     1    25    1
     4     1    26    1
     5     2     3    1
     6     2    27    1
     7     2    28    1
     8     3     4    1
     9     3    29    1
    10     3    30    1
    11     4     5    1
    12     4     6    1
    13     4     7    1
    14     6    31    1
    15     6    32    1
    16     6    33    1
    17     7     8   am
    18     7    34    1
    19     8     9    2
    20     8    10    1
    21    10    11    1
    22    10    35    1
    23    10    36    1
    24    11    12    1
    25    11    37    1
    26    11    38    1
    27    12    23   ar
    28    12    13   ar
    29    13    14   ar
    30    13    39    1
    31    14    15   ar
    32    14    40    1
    33    15    16    1
    34    15    22   ar
    35    16    17    2
    36    16    18    2
    37    16    19    1
    38    19    20    1
    39    19    21    1
    40    20    41    1
    41    20    42    1
    42    20    43    1
    43    21    44    1
    44    21    45    1
    45    21    46    1
    46    22    23   ar
    47    22    47    1
    48    23    48    1
