@<TRIPOS>MOLECULE
ZINC000058025868
 37 37 0 0 0
SMALL
GASTEIGER

@<TRIPOS>ATOM
      1 C          -1.3369   -2.8669   -1.4614 C.3     1  UNL1       -0.0431
      2 C          -2.0315   -2.3653   -0.1938 C.3     1  UNL1        0.0721
      3 C          -1.5939   -3.2178    0.9989 C.3     1  UNL1       -0.0431
      4 S          -1.5759   -0.6343    0.1007 S.O2    1  UNL1       -0.0178
      5 O          -2.2516   -0.1801    1.2653 O.2     1  UNL1       -0.1734
      6 O          -0.1612   -0.5202    0.0304 O.2     1  UNL1       -0.1734
      7 C          -2.2950    0.1935   -1.3445 C.3     1  UNL1        0.1502
      8 H          -1.9082   -0.2641   -2.2551 H       1  UNL1        0.0630
      9 C          -1.9214    1.6770   -1.3208 C.3     1  UNL1       -0.0342
     10 C          -3.7949    0.0526   -1.3094 C.2     1  UNL1        0.2411
     11 O          -4.3634   -0.1186   -0.2517 O.2     1  UNL1       -0.2734
     12 N          -4.5048    0.1169   -2.4532 N.am    1  UNL1       -0.2839
     13 C          -5.9033    0.1052   -2.4104 C.ar    1  UNL1        0.0335
     14 C          -6.6250   -0.5266   -3.4146 C.ar    1  UNL1       -0.0399
     15 C          -8.0054   -0.5363   -3.3694 C.ar    1  UNL1       -0.0484
     16 C          -8.6688    0.0826   -2.3259 C.ar    1  UNL1        0.0549
     17 C         -10.1751    0.0706   -2.2800 C.3     1  UNL1        0.4174
     18 F         -10.6112   -1.0589   -1.5790 F       1  UNL1       -0.1659
     19 F         -10.6312    1.2249   -1.6345 F       1  UNL1       -0.1659
     20 F         -10.6811    0.0344   -3.5837 F       1  UNL1       -0.1659
     21 C          -7.9531    0.7123   -1.3241 C.ar    1  UNL1       -0.0484
     22 C          -6.5724    0.7206   -1.3605 C.ar    1  UNL1       -0.0399
     23 H          -1.5386   -3.9304   -1.5897 H       1  UNL1        0.0248
     24 H          -1.7152   -2.3187   -2.3242 H       1  UNL1        0.0248
     25 H          -0.2620   -2.7090   -1.3734 H       1  UNL1        0.0248
     26 H          -3.1118   -2.4407   -0.3174 H       1  UNL1        0.0530
     27 H          -0.5135   -3.1424    1.1225 H       1  UNL1        0.0248
     28 H          -2.0887   -2.8604    1.9020 H       1  UNL1        0.0248
     29 H          -1.8676   -4.2579    0.8220 H       1  UNL1        0.0248
     30 H          -2.2777    2.1560   -2.2327 H       1  UNL1        0.0253
     31 H          -2.3823    2.1540   -0.4558 H       1  UNL1        0.0253
     32 H          -0.8379    1.7779   -1.2569 H       1  UNL1        0.0253
     33 H          -4.0461    0.1712   -3.3062 H       1  UNL1        0.1549
     34 H          -6.1075   -1.0096   -4.2302 H       1  UNL1        0.0636
     35 H          -8.5672   -1.0275   -4.1500 H       1  UNL1        0.0624
     36 H          -8.4742    1.1948   -0.5105 H       1  UNL1        0.0624
     37 H          -6.0140    1.2125   -0.5779 H       1  UNL1        0.0636
@<TRIPOS>BOND
     1     1     2    1
     2     1    23    1
     3     1    24    1
     4     1    25    1
     5     2     3    1
     6     2     4    1
     7     2    26    1
     8     3    27    1
     9     3    28    1
    10     3    29    1
    11     4     5    2
    12     4     6    2
    13     4     7    1
    14     7     8    1
    15     7     9    1
    16     7    10    1
    17     9    30    1
    18     9    31    1
    19     9    32    1
    20    10    11    2
    21    10    12   am
    22    12    13    1
    23    12    33    1
    24    13    22   ar
    25    13    14   ar
    26    14    15   ar
    27    14    34    1
    28    15    16   ar
    29    15    35    1
    30    16    17    1
    31    16    21   ar
    32    17    18    1
    33    17    19    1
    34    17    20    1
    35    21    22   ar
    36    21    36    1
    37    22    37    1
