@<TRIPOS>MOLECULE
ZINC000408607380
 59 61 0 0 0
SMALL
GASTEIGER

@<TRIPOS>ATOM
      1 C          -0.0187    1.5258    0.0104 C.3     1  UNL1       -0.0466
      2 C           0.0021   -0.0041    0.0020 C.3     1  UNL1        0.0206
      3 H          -1.0205   -0.3814    0.0098 H       1  UNL1        0.0495
      4 C           0.7182   -0.4975   -1.2568 C.3     1  UNL1       -0.0308
      5 C           0.6303   -2.0233   -1.3286 C.3     1  UNL1       -0.0260
      6 C           1.3357   -2.5093   -2.5685 C.ar    1  UNL1       -0.0473
      7 C           0.6379   -2.6389   -3.7547 C.ar    1  UNL1       -0.0586
      8 C           1.2849   -3.0847   -4.8920 C.ar    1  UNL1       -0.0615
      9 C           2.6299   -3.4004   -4.8432 C.ar    1  UNL1       -0.0617
     10 C           3.3279   -3.2700   -3.6572 C.ar    1  UNL1       -0.0615
     11 C           2.6818   -2.8201   -2.5209 C.ar    1  UNL1       -0.0586
     12 N           0.7106   -0.4894    1.1889 N.am    1  UNL1       -0.3116
     13 C           0.0512   -0.6335    2.3554 C.2     1  UNL1        0.2290
     14 O          -1.1288   -0.3614    2.4226 O.2     1  UNL1       -0.2743
     15 C           0.7801   -1.1327    3.5763 C.3     1  UNL1        0.0971
     16 N          -0.1498   -1.2008    4.7064 N.3     1  UNL1       -0.1635
     17 C          -0.9883   -2.3873    4.8945 C.3     1  UNL1        0.0460
     18 C          -0.2147   -3.4337    5.6546 C.ar    1  UNL1       -0.0317
     19 C           0.5500   -4.3604    4.9709 C.ar    1  UNL1       -0.0573
     20 C           1.2595   -5.3202    5.6680 C.ar    1  UNL1       -0.0615
     21 C           1.2048   -5.3532    7.0489 C.ar    1  UNL1       -0.0617
     22 C           0.4408   -4.4259    7.7326 C.ar    1  UNL1       -0.0615
     23 C          -0.2653   -3.4634    7.0357 C.ar    1  UNL1       -0.0573
     24 S          -0.2530    0.0634    5.7711 S.O2    1  UNL1        0.0616
     25 O          -0.7600   -0.4745    6.9847 O.2     1  UNL1       -0.1528
     26 O           0.9819    0.7613    5.6862 O.2     1  UNL1       -0.1528
     27 C          -1.4880    1.1611    5.1591 C.ar    1  UNL1        0.1056
     28 C          -1.1387    2.1801    4.2927 C.ar    1  UNL1       -0.0340
     29 C          -2.1069    3.0415    3.8124 C.ar    1  UNL1       -0.0415
     30 C          -3.4260    2.8838    4.1988 C.ar    1  UNL1        0.0411
     31 CL         -4.6428    3.9650    3.5955 Cl      1  UNL1       -0.0835
     32 C          -3.7750    1.8638    5.0660 C.ar    1  UNL1       -0.0415
     33 C          -2.8067    0.9996    5.5412 C.ar    1  UNL1       -0.0340
     34 H           1.0039    1.9031    0.0027 H       1  UNL1        0.0247
     35 H          -0.5459    1.8868   -0.8726 H       1  UNL1        0.0247
     36 H          -0.5289    1.8773    0.9072 H       1  UNL1        0.0247
     37 H           0.2444   -0.0644   -2.1377 H       1  UNL1        0.0286
     38 H           1.7648   -0.1951   -1.2215 H       1  UNL1        0.0286
     39 H           1.1041   -2.4564   -0.4477 H       1  UNL1        0.0314
     40 H          -0.4163   -2.3257   -1.3639 H       1  UNL1        0.0314
     41 H          -0.4128   -2.3922   -3.7929 H       1  UNL1        0.0620
     42 H           0.7396   -3.1866   -5.8187 H       1  UNL1        0.0618
     43 H           3.1352   -3.7494   -5.7316 H       1  UNL1        0.0618
     44 H           4.3785   -3.5170   -3.6190 H       1  UNL1        0.0618
     45 H           3.2272   -2.7181   -1.5943 H       1  UNL1        0.0620
     46 H           1.6544   -0.7070    1.1351 H       1  UNL1        0.1490
     47 H           1.1839   -2.1254    3.3778 H       1  UNL1        0.0539
     48 H           1.5952   -0.4503    3.8172 H       1  UNL1        0.0539
     49 H          -1.8814   -2.1155    5.4572 H       1  UNL1        0.0493
     50 H          -1.2786   -2.7849    3.9221 H       1  UNL1        0.0493
     51 H           0.5927   -4.3346    3.8920 H       1  UNL1        0.0621
     52 H           1.8564   -6.0447    5.1338 H       1  UNL1        0.0618
     53 H           1.7586   -6.1035    7.5935 H       1  UNL1        0.0618
     54 H           0.3978   -4.4518    8.8115 H       1  UNL1        0.0618
     55 H          -0.8622   -2.7389    7.5698 H       1  UNL1        0.0621
     56 H          -0.1089    2.3034    3.9914 H       1  UNL1        0.0637
     57 H          -1.8339    3.8378    3.1358 H       1  UNL1        0.0633
     58 H          -4.8044    1.7404    5.3682 H       1  UNL1        0.0633
     59 H          -3.0790    0.2031    6.2178 H       1  UNL1        0.0637
@<TRIPOS>BOND
     1     1     2    1
     2     1    34    1
     3     1    35    1
     4     1    36    1
     5     2     3    1
     6     2     4    1
     7     2    12    1
     8     4     5    1
     9     4    37    1
    10     4    38    1
    11     5     6    1
    12     5    39    1
    13     5    40    1
    14     6    11   ar
    15     6     7   ar
    16     7     8   ar
    17     7    41    1
    18     8     9   ar
    19     8    42    1
    20     9    10   ar
    21     9    43    1
    22    10    11   ar
    23    10    44    1
    24    11    45    1
    25    12    13   am
    26    12    46    1
    27    13    14    2
    28    13    15    1
    29    15    16    1
    30    15    47    1
    31    15    48    1
    32    16    17    1
    33    24    16    1
    34    17    18    1
    35    17    49    1
    36    17    50    1
    37    18    23   ar
    38    18    19   ar
    39    19    20   ar
    40    19    51    1
    41    20    21   ar
    42    20    52    1
    43    21    22   ar
    44    21    53    1
    45    22    23   ar
    46    22    54    1
    47    23    55    1
    48    24    25    2
    49    24    26    2
    50    24    27    1
    51    27    33   ar
    52    27    28   ar
    53    28    29   ar
    54    28    56    1
    55    29    30   ar
    56    29    57    1
    57    30    31    1
    58    30    32   ar
    59    32    33   ar
    60    32    58    1
    61    33    59    1
