@<TRIPOS>MOLECULE
ZINC000021740123
 58 61 0 0 0
SMALL
GASTEIGER

@<TRIPOS>ATOM
      1 C          -0.0187    1.5258    0.0104 C.3     1  UNL1       -0.0612
      2 C           0.0021   -0.0041    0.0020 C.3     1  UNL1       -0.0292
      3 H           0.5122   -0.3561   -0.8946 H       1  UNL1        0.0311
      4 C          -1.4334   -0.5345    0.0145 C.3     1  UNL1       -0.0454
      5 C          -1.4142   -2.0642   -0.0270 C.3     1  UNL1       -0.0292
      6 H          -0.8906   -2.3972   -0.9231 H       1  UNL1        0.0311
      7 C          -2.8500   -2.5925   -0.0485 C.3     1  UNL1       -0.0612
      8 C          -0.6916   -2.5957    1.2148 C.3     1  UNL1        0.0231
      9 N           0.6392   -1.9773    1.2884 N.3     1  UNL1       -0.1761
     10 S           1.9987   -2.9138    1.4188 S.O2    1  UNL1        0.0609
     11 O           2.9971   -2.0919    2.0077 O.2     1  UNL1       -0.1528
     12 O           1.5812   -4.1514    1.9786 O.2     1  UNL1       -0.1528
     13 C           2.5472   -3.2678   -0.2178 C.ar    1  UNL1        0.1055
     14 C           2.0774   -4.3919   -0.8736 C.ar    1  UNL1       -0.0346
     15 C           2.5032   -4.6750   -2.1549 C.ar    1  UNL1       -0.0478
     16 C           3.4095   -3.8243   -2.7898 C.ar    1  UNL1        0.0368
     17 C           3.8697   -4.1214   -4.1630 C.2     1  UNL1        0.2444
     18 O           3.4587   -5.1082   -4.7416 O.2     1  UNL1       -0.2702
     19 N           4.7449   -3.2979   -4.7733 N.am    1  UNL1       -0.3042
     20 C           5.2009   -3.5923   -6.1341 C.3     1  UNL1        0.0723
     21 C           6.1673   -2.5260   -6.5817 C.ar    1  UNL1        0.1550
     22 N           5.8606   -1.4132   -7.1969 N.ar    1  UNL1       -0.1321
     23 N           6.9231   -0.7275   -7.4351 N.ar    1  UNL1       -0.1294
     24 C           7.9801   -1.3780   -6.9766 C.ar    1  UNL1        0.1611
     25 C           9.3603   -1.0988   -6.9669 C.ar    1  UNL1       -0.0165
     26 C          10.2151   -1.9943   -6.4033 C.ar    1  UNL1       -0.0452
     27 C           9.7119   -3.1801   -5.8412 C.ar    1  UNL1        0.0714
     28 C          10.6574   -4.1731   -5.2160 C.3     1  UNL1        0.4188
     29 F          11.1698   -5.0170   -6.2072 F       1  UNL1       -0.1658
     30 F          11.7090   -3.4893   -4.5964 F       1  UNL1       -0.1658
     31 F           9.9713   -4.9348   -4.2640 F       1  UNL1       -0.1658
     32 C           8.3866   -3.4342   -5.8579 C.ar    1  UNL1        0.0246
     33 N           7.5175   -2.5425   -6.4143 N.ar    1  UNL1       -0.2846
     34 C           3.8791   -2.6918   -2.1228 C.ar    1  UNL1       -0.0478
     35 C           3.4413   -2.4174   -0.8436 C.ar    1  UNL1       -0.0346
     36 C           0.7415   -0.5122    1.2437 C.3     1  UNL1        0.0231
     37 H           1.0039    1.9031    0.0027 H       1  UNL1        0.0233
     38 H          -0.5459    1.8868   -0.8726 H       1  UNL1        0.0233
     39 H          -0.5289    1.8773    0.9072 H       1  UNL1        0.0233
     40 H          -1.9355   -0.2021    0.9231 H       1  UNL1        0.0271
     41 H          -1.9686   -0.1542   -0.8556 H       1  UNL1        0.0271
     42 H          -3.3641   -2.2117   -0.9309 H       1  UNL1        0.0233
     43 H          -2.8358   -3.6820   -0.0780 H       1  UNL1        0.0233
     44 H          -3.3728   -2.2602    0.8483 H       1  UNL1        0.0233
     45 H          -1.2630   -2.3406    2.1072 H       1  UNL1        0.0446
     46 H          -0.5879   -3.6783    1.1418 H       1  UNL1        0.0446
     47 H           1.3762   -5.0493   -0.3812 H       1  UNL1        0.0637
     48 H           2.1363   -5.5532   -2.6654 H       1  UNL1        0.0626
     49 H           5.0728   -2.5104   -4.3116 H       1  UNL1        0.1495
     50 H           5.6977   -4.5623   -6.1490 H       1  UNL1        0.0543
     51 H           4.3444   -3.6123   -6.8080 H       1  UNL1        0.0543
     52 H           9.7358   -0.1844   -7.4021 H       1  UNL1        0.0655
     53 H          11.2764   -1.7950   -6.3882 H       1  UNL1        0.0625
     54 H           8.0108   -4.3486   -5.4230 H       1  UNL1        0.0819
     55 H           4.5807   -2.0297   -2.6083 H       1  UNL1        0.0626
     56 H           3.8036   -1.5412   -0.3264 H       1  UNL1        0.0637
     57 H           1.7904   -0.2207    1.1903 H       1  UNL1        0.0446
     58 H           0.2870   -0.0867    2.1384 H       1  UNL1        0.0446
@<TRIPOS>BOND
     1     1     2    1
     2     1    37    1
     3     1    38    1
     4     1    39    1
     5     2     3    1
     6     2    36    1
     7     2     4    1
     8     4     5    1
     9     4    40    1
    10     4    41    1
    11     5     6    1
    12     5     7    1
    13     5     8    1
    14     7    42    1
    15     7    43    1
    16     7    44    1
    17     8     9    1
    18     8    45    1
    19     8    46    1
    20    10     9    1
    21     9    36    1
    22    10    11    2
    23    10    12    2
    24    10    13    1
    25    13    35   ar
    26    13    14   ar
    27    14    15   ar
    28    14    47    1
    29    15    16   ar
    30    15    48    1
    31    16    17    1
    32    16    34   ar
    33    17    18    2
    34    17    19   am
    35    19    20    1
    36    19    49    1
    37    20    21    1
    38    20    50    1
    39    20    51    1
    40    21    33   ar
    41    21    22   ar
    42    22    23   ar
    43    23    24   ar
    44    24    33   ar
    45    24    25   ar
    46    25    26   ar
    47    25    52    1
    48    26    27   ar
    49    26    53    1
    50    27    28    1
    51    27    32   ar
    52    28    29    1
    53    28    30    1
    54    28    31    1
    55    32    33   ar
    56    32    54    1
    57    34    35   ar
    58    34    55    1
    59    35    56    1
    60    36    57    1
    61    36    58    1
