@<TRIPOS>MOLECULE
ZINC000012797168
 55 57 0 0 0
SMALL
GASTEIGER

@<TRIPOS>ATOM
      1 C           0.9171   -1.0807    0.5891 C.3     1  UNL1       -0.0409
      2 C           0.0021   -0.0041    0.0020 C.3     1  UNL1        0.0844
      3 H           0.1514    0.9323    0.5396 H       1  UNL1        0.0556
      4 C          -1.4349   -0.4375    0.1376 C.2     1  UNL1        0.2302
      5 O          -1.9738   -1.0417   -0.7653 O.2     1  UNL1       -0.2741
      6 N          -2.1211   -0.1536    1.2624 N.am    1  UNL1       -0.3112
      7 C          -3.5180   -0.5750    1.3942 C.3     1  UNL1        0.0232
      8 C          -3.5867   -2.0035    1.9725 C.3     1  UNL1       -0.0345
      9 C          -3.7909   -1.7884    3.4927 C.3     1  UNL1       -0.0513
     10 C          -4.7416   -0.5666    3.5405 C.3     1  UNL1       -0.0513
     11 C          -4.2523    0.3386    2.3911 C.3     1  UNL1       -0.0345
     12 N           0.3230    0.1901   -1.4183 N.3     1  UNL1       -0.2892
     13 C           1.7579    0.4441   -1.6038 C.3     1  UNL1        0.0141
     14 C           2.0809    0.4604   -3.1017 C.3     1  UNL1        0.0333
     15 N           1.1881    1.4251   -3.7616 N.3     1  UNL1       -0.1741
     16 S           1.7945    2.5999   -4.7589 S.O2    1  UNL1        0.0609
     17 O           0.8325    3.6456   -4.7783 O.2     1  UNL1       -0.1528
     18 O           3.1477    2.7958   -4.3717 O.2     1  UNL1       -0.1528
     19 C           1.8352    1.9309   -6.3884 C.ar    1  UNL1        0.1055
     20 C           2.9578    1.2566   -6.8309 C.ar    1  UNL1       -0.0348
     21 C           2.9897    0.7317   -8.1093 C.ar    1  UNL1       -0.0483
     22 C           1.8988    0.8808   -8.9451 C.ar    1  UNL1        0.0549
     23 C           1.9337    0.3090  -10.3390 C.3     1  UNL1        0.4174
     24 F           1.4432   -1.0010  -10.3181 F       1  UNL1       -0.1659
     25 F           1.1390    1.0911  -11.1839 F       1  UNL1       -0.1659
     26 F           3.2514    0.3062  -10.8090 F       1  UNL1       -0.1659
     27 C           0.7756    1.5540   -8.5022 C.ar    1  UNL1       -0.0483
     28 C           0.7422    2.0755   -7.2224 C.ar    1  UNL1       -0.0348
     29 C          -0.2575    1.3185   -3.5128 C.3     1  UNL1        0.0333
     30 C          -0.4884    1.2683   -1.9987 C.3     1  UNL1        0.0141
     31 H           0.7677   -2.0171    0.0515 H       1  UNL1        0.0249
     32 H           1.9564   -0.7672    0.4910 H       1  UNL1        0.0249
     33 H           0.6789   -1.2247    1.6429 H       1  UNL1        0.0249
     34 H          -1.6900    0.3296    1.9846 H       1  UNL1        0.1490
     35 H          -4.0113   -0.5405    0.4229 H       1  UNL1        0.0498
     36 H          -4.4305   -2.5470    1.5474 H       1  UNL1        0.0283
     37 H          -2.6547   -2.5365    1.7844 H       1  UNL1        0.0283
     38 H          -4.2603   -2.6611    3.9467 H       1  UNL1        0.0266
     39 H          -2.8436   -1.5601    3.9812 H       1  UNL1        0.0266
     40 H          -5.7719   -0.8780    3.3686 H       1  UNL1        0.0266
     41 H          -4.6524   -0.0509    4.4966 H       1  UNL1        0.0266
     42 H          -3.5693    1.0955    2.7769 H       1  UNL1        0.0283
     43 H          -5.1025    0.8159    1.9038 H       1  UNL1        0.0283
     44 H           2.0163    1.4080   -1.1655 H       1  UNL1        0.0440
     45 H           2.3327   -0.3434   -1.1164 H       1  UNL1        0.0440
     46 H           3.1182    0.7611   -3.2494 H       1  UNL1        0.0456
     47 H           1.9213   -0.5327   -3.5215 H       1  UNL1        0.0456
     48 H           3.8101    1.1401   -6.1779 H       1  UNL1        0.0637
     49 H           3.8671    0.2055   -8.4553 H       1  UNL1        0.0624
     50 H          -0.0769    1.6701   -9.1550 H       1  UNL1        0.0624
     51 H          -0.1353    2.6014   -6.8763 H       1  UNL1        0.0637
     52 H          -0.7663    2.1864   -3.9322 H       1  UNL1        0.0456
     53 H          -0.6419    0.4078   -3.9721 H       1  UNL1        0.0456
     54 H          -1.5428    1.0786   -1.7977 H       1  UNL1        0.0440
     55 H          -0.1987    2.2208   -1.5549 H       1  UNL1        0.0440
@<TRIPOS>BOND
     1     1     2    1
     2     1    31    1
     3     1    32    1
     4     1    33    1
     5     2     3    1
     6     2     4    1
     7     2    12    1
     8     4     5    2
     9     4     6   am
    10     6     7    1
    11     6    34    1
    12     7    11    1
    13     7     8    1
    14     7    35    1
    15     8     9    1
    16     8    36    1
    17     8    37    1
    18     9    10    1
    19     9    38    1
    20     9    39    1
    21    10    11    1
    22    10    40    1
    23    10    41    1
    24    11    42    1
    25    11    43    1
    26    12    30    1
    27    12    13    1
    28    13    14    1
    29    13    44    1
    30    13    45    1
    31    14    15    1
    32    14    46    1
    33    14    47    1
    34    16    15    1
    35    15    29    1
    36    16    17    2
    37    16    18    2
    38    16    19    1
    39    19    28   ar
    40    19    20   ar
    41    20    21   ar
    42    20    48    1
    43    21    22   ar
    44    21    49    1
    45    22    23    1
    46    22    27   ar
    47    23    24    1
    48    23    25    1
    49    23    26    1
    50    27    28   ar
    51    27    50    1
    52    28    51    1
    53    29    30    1
    54    29    52    1
    55    29    53    1
    56    30    54    1
    57    30    55    1
