@<TRIPOS>MOLECULE
ZINC000040162275
 54 55 0 0 0
SMALL
GASTEIGER

@<TRIPOS>ATOM
      1 C          -1.0875    0.2240   -7.4716 C.3     1  UNL1       -0.0613
      2 C          -1.8086    1.2318   -6.5743 C.3     1  UNL1       -0.0305
      3 C          -3.0845    0.6200   -6.0559 C.ar    1  UNL1       -0.0475
      4 C          -4.2582    0.7603   -6.7736 C.ar    1  UNL1       -0.0568
      5 C          -5.4292    0.2009   -6.3014 C.ar    1  UNL1       -0.0406
      6 C          -5.4273   -0.5034   -5.1041 C.ar    1  UNL1        0.0275
      7 N          -6.6097   -1.0708   -4.6239 N.pl3   1  UNL1       -0.3354
      8 C          -6.6058   -1.8132   -3.3609 C.3     1  UNL1        0.0861
      9 C          -7.9956   -2.3186   -3.0710 C.2     1  UNL1        0.2343
     10 O          -8.9004   -2.0820   -3.8433 O.2     1  UNL1       -0.2738
     11 N          -8.2332   -3.0336   -1.9535 N.am    1  UNL1       -0.2842
     12 C          -9.5397   -3.4200   -1.6346 C.ar    1  UNL1        0.0335
     13 C          -9.9473   -3.4669   -0.3079 C.ar    1  UNL1       -0.0386
     14 C         -11.2375   -3.8488    0.0035 C.ar    1  UNL1       -0.0336
     15 C         -12.1230   -4.1846   -1.0042 C.ar    1  UNL1        0.1056
     16 S         -13.7680   -4.6718   -0.6027 S.O2    1  UNL1        0.0608
     17 O         -14.2330   -5.4530   -1.6948 O.2     1  UNL1       -0.1528
     18 O         -13.7296   -5.1505    0.7347 O.2     1  UNL1       -0.1528
     19 N         -14.6944   -3.2993   -0.5816 N.3     1  UNL1       -0.1771
     20 C         -15.3597   -2.8458   -1.8055 C.3     1  UNL1        0.0177
     21 C         -16.7950   -3.3751   -1.8320 C.3     1  UNL1       -0.0507
     22 C         -14.8487   -2.5387    0.6609 C.3     1  UNL1        0.0177
     23 C         -13.8205   -1.4062    0.6966 C.3     1  UNL1       -0.0507
     24 C         -11.7204   -4.1384   -2.3263 C.ar    1  UNL1       -0.0336
     25 C         -10.4332   -3.7519   -2.6446 C.ar    1  UNL1       -0.0386
     26 C          -4.2465   -0.6424   -4.3856 C.ar    1  UNL1       -0.0406
     27 C          -3.0779   -0.0852   -4.8664 C.ar    1  UNL1       -0.0568
     28 H          -0.1647    0.6666   -7.8466 H       1  UNL1        0.0233
     29 H          -0.8535   -0.6720   -6.8967 H       1  UNL1        0.0233
     30 H          -1.7308   -0.0405   -8.3109 H       1  UNL1        0.0233
     31 H          -1.1653    1.4964   -5.7350 H       1  UNL1        0.0311
     32 H          -2.0427    2.1278   -7.1492 H       1  UNL1        0.0311
     33 H          -4.2591    1.3083   -7.7043 H       1  UNL1        0.0621
     34 H          -6.3456    0.3111   -6.8623 H       1  UNL1        0.0636
     35 H          -7.4336   -0.9733   -5.1266 H       1  UNL1        0.1466
     36 H          -5.9208   -2.6576   -3.4379 H       1  UNL1        0.0557
     37 H          -6.2826   -1.1556   -2.5539 H       1  UNL1        0.0557
     38 H          -7.4985   -3.2803   -1.3702 H       1  UNL1        0.1549
     39 H          -9.2560   -3.2055    0.4796 H       1  UNL1        0.0637
     40 H         -11.5551   -3.8855    1.0350 H       1  UNL1        0.0638
     41 H         -15.3738   -1.7561   -1.8290 H       1  UNL1        0.0441
     42 H         -14.8181   -3.2209   -2.6739 H       1  UNL1        0.0441
     43 H         -17.2900   -3.0376   -2.7426 H       1  UNL1        0.0243
     44 H         -16.7809   -4.4647   -1.8085 H       1  UNL1        0.0243
     45 H         -17.3366   -3.0000   -0.9636 H       1  UNL1        0.0243
     46 H         -15.8535   -2.1188    0.7075 H       1  UNL1        0.0441
     47 H         -14.6911   -3.1994    1.5133 H       1  UNL1        0.0441
     48 H         -13.9353   -0.8402    1.6210 H       1  UNL1        0.0243
     49 H         -12.8157   -1.8261    0.6500 H       1  UNL1        0.0243
     50 H         -13.9781   -0.7454   -0.1559 H       1  UNL1        0.0243
     51 H         -12.4143   -4.4013   -3.1110 H       1  UNL1        0.0638
     52 H         -10.1193   -3.7160   -3.6774 H       1  UNL1        0.0637
     53 H          -4.2416   -1.1890   -3.4542 H       1  UNL1        0.0636
     54 H          -2.1595   -0.1929   -4.3083 H       1  UNL1        0.0621
@<TRIPOS>BOND
     1     1     2    1
     2     1    28    1
     3     1    29    1
     4     1    30    1
     5     2     3    1
     6     2    31    1
     7     2    32    1
     8     3    27   ar
     9     3     4   ar
    10     4     5   ar
    11     4    33    1
    12     5     6   ar
    13     5    34    1
    14     6     7    1
    15     6    26   ar
    16     7     8    1
    17     7    35    1
    18     8     9    1
    19     8    36    1
    20     8    37    1
    21     9    10    2
    22     9    11   am
    23    11    12    1
    24    11    38    1
    25    12    25   ar
    26    12    13   ar
    27    13    14   ar
    28    13    39    1
    29    14    15   ar
    30    14    40    1
    31    15    16    1
    32    15    24   ar
    33    16    17    2
    34    16    18    2
    35    16    19    1
    36    19    20    1
    37    19    22    1
    38    20    21    1
    39    20    41    1
    40    20    42    1
    41    21    43    1
    42    21    44    1
    43    21    45    1
    44    22    23    1
    45    22    46    1
    46    22    47    1
    47    23    48    1
    48    23    49    1
    49    23    50    1
    50    24    25   ar
    51    24    51    1
    52    25    52    1
    53    26    27   ar
    54    26    53    1
    55    27    54    1
