@<TRIPOS>MOLECULE
ZINC000095990980
 36 37 0 0 0
SMALL
GASTEIGER

@<TRIPOS>ATOM
      1 C          -0.0187    1.5258    0.0104 C.3     1  UNL1       -0.0374
      2 C           0.0021   -0.0041    0.0020 C.3     1  UNL1        0.0706
      3 H           0.5121   -0.3563   -0.8946 H       1  UNL1        0.0606
      4 C          -1.4357   -0.5357    0.0154 C.3     1  UNL1        0.0467
      5 N          -1.3891   -1.9954    0.1960 N.3     1  UNL1       -0.1703
      6 S          -2.2247   -3.0065   -0.8147 S.O2    1  UNL1        0.0782
      7 O          -2.4345   -4.2122   -0.0926 O.2     1  UNL1       -0.1514
      8 O          -3.2841   -2.2366   -1.3664 O.2     1  UNL1       -0.1514
      9 C          -1.1523   -3.4086   -2.1537 C.ar    1  UNL1        0.1938
     10 C          -1.1409   -2.6116   -3.2825 C.ar    1  UNL1       -0.0160
     11 C          -0.2929   -2.9365   -4.3305 C.ar    1  UNL1       -0.0453
     12 C           0.5152   -4.0557   -4.2028 C.ar    1  UNL1        0.0730
     13 C           1.4540   -4.4498   -5.3138 C.3     1  UNL1        0.4188
     14 F           2.6917   -3.8267   -5.1215 F       1  UNL1       -0.1658
     15 F           1.6251   -5.8383   -5.3091 F       1  UNL1       -0.1658
     16 F           0.9166   -4.0504   -6.5421 F       1  UNL1       -0.1658
     17 C           0.4492   -4.8053   -3.0433 C.ar    1  UNL1        0.0414
     18 N          -0.3659   -4.4635   -2.0647 N.ar    1  UNL1       -0.2351
     19 C          -0.5783   -2.5300    1.3016 C.3     1  UNL1        0.0467
     20 C           0.8176   -1.9012    1.2255 C.3     1  UNL1        0.0706
     21 H           1.3309   -2.2611    0.3338 H       1  UNL1        0.0606
     22 C           1.6209   -2.2882    2.4688 C.3     1  UNL1       -0.0374
     23 O           0.6913   -0.4787    1.1611 O.3     1  UNL1       -0.3713
     24 H           1.0039    1.9031    0.0027 H       1  UNL1        0.0255
     25 H          -0.5459    1.8868   -0.8726 H       1  UNL1        0.0255
     26 H          -0.5289    1.8773    0.9072 H       1  UNL1        0.0255
     27 H          -1.9874   -0.0814    0.8384 H       1  UNL1        0.0469
     28 H          -1.9238   -0.2981   -0.9298 H       1  UNL1        0.0469
     29 H          -1.7846   -1.7469   -3.3479 H       1  UNL1        0.0653
     30 H          -0.2629   -2.3322   -5.2251 H       1  UNL1        0.0625
     31 H           1.0751   -5.6788   -2.9361 H       1  UNL1        0.0836
     32 H          -1.0437   -2.2765    2.2541 H       1  UNL1        0.0469
     33 H          -0.4987   -3.6131    1.2081 H       1  UNL1        0.0469
     34 H           1.7137   -3.3731    2.5183 H       1  UNL1        0.0255
     35 H           2.6133   -1.8407    2.4140 H       1  UNL1        0.0255
     36 H           1.1079   -1.9264    3.3599 H       1  UNL1        0.0255
@<TRIPOS>BOND
     1     1     2    1
     2     1    24    1
     3     1    25    1
     4     1    26    1
     5     2     3    1
     6     2    23    1
     7     2     4    1
     8     4     5    1
     9     4    27    1
    10     4    28    1
    11     6     5    1
    12     5    19    1
    13     6     7    2
    14     6     8    2
    15     6     9    1
    16     9    18   ar
    17     9    10   ar
    18    10    11   ar
    19    10    29    1
    20    11    12   ar
    21    11    30    1
    22    12    13    1
    23    12    17   ar
    24    13    14    1
    25    13    15    1
    26    13    16    1
    27    17    18   ar
    28    17    31    1
    29    19    20    1
    30    19    32    1
    31    19    33    1
    32    20    21    1
    33    20    22    1
    34    20    23    1
    35    22    34    1
    36    22    35    1
    37    22    36    1
