@<TRIPOS>MOLECULE
ZINC000004511237
 44 45 0 0 0
SMALL
GASTEIGER

@<TRIPOS>ATOM
      1 C          -0.0187    1.5258    0.0104 C.3     1  UNL1       -0.0507
      2 C           0.0021   -0.0041    0.0020 C.3     1  UNL1        0.0182
      3 N           0.6878   -0.4765   -1.2033 N.3     1  UNL1       -0.1681
      4 C           2.1478   -0.5966   -1.2159 C.3     1  UNL1        0.0968
      5 C           2.5471   -1.9310   -0.6407 C.2     1  UNL1        0.2289
      6 O           1.6959   -2.7055   -0.2578 O.2     1  UNL1       -0.2743
      7 N           3.8501   -2.2637   -0.5516 N.am    1  UNL1       -0.3117
      8 C           4.2383   -3.5610    0.0076 C.3     1  UNL1        0.0379
      9 C           5.7631   -3.6864   -0.0056 C.3     1  UNL1        0.0742
     10 H           6.1398   -3.5100   -1.0131 H       1  UNL1        0.0611
     11 C           6.1768   -5.0960    0.4690 C.3     1  UNL1       -0.0231
     12 C           7.4322   -4.7976    1.3331 C.3     1  UNL1       -0.0271
     13 C           7.0504   -3.4251    1.9426 C.3     1  UNL1        0.0482
     14 O           6.3366   -2.7369    0.9007 O.3     1  UNL1       -0.3750
     15 S          -0.1875   -0.8749   -2.5515 S.O2    1  UNL1        0.0613
     16 O           0.6166   -1.7761   -3.3001 O.2     1  UNL1       -0.1528
     17 O          -1.4970   -1.1925   -2.1004 O.2     1  UNL1       -0.1528
     18 C          -0.3375    0.5853   -3.5262 C.ar    1  UNL1        0.1057
     19 C          -1.4059    1.4403   -3.3295 C.ar    1  UNL1       -0.0326
     20 C          -1.5247    2.5858   -4.0934 C.ar    1  UNL1       -0.0246
     21 C          -0.5728    2.8773   -5.0556 C.ar    1  UNL1        0.1235
     22 F          -0.6876    3.9971   -5.8027 F       1  UNL1       -0.2055
     23 C           0.4971    2.0206   -5.2514 C.ar    1  UNL1       -0.0246
     24 C           0.6164    0.8781   -4.4831 C.ar    1  UNL1       -0.0326
     25 H           1.0039    1.9031    0.0027 H       1  UNL1        0.0243
     26 H          -0.5459    1.8868   -0.8726 H       1  UNL1        0.0243
     27 H          -0.5289    1.8773    0.9072 H       1  UNL1        0.0243
     28 H           0.5293   -0.3651    0.8851 H       1  UNL1        0.0441
     29 H          -1.0205   -0.3814    0.0098 H       1  UNL1        0.0441
     30 H           2.5098   -0.5199   -2.2412 H       1  UNL1        0.0539
     31 H           2.5833    0.2026   -0.6162 H       1  UNL1        0.0539
     32 H           4.5309   -1.6443   -0.8578 H       1  UNL1        0.1488
     33 H           3.8763   -3.6376    1.0329 H       1  UNL1        0.0487
     34 H           3.8028   -4.3602   -0.5921 H       1  UNL1        0.0487
     35 H           5.3896   -5.5489    1.0718 H       1  UNL1        0.0291
     36 H           6.4317   -5.7315   -0.3791 H       1  UNL1        0.0291
     37 H           7.5619   -5.5503    2.1107 H       1  UNL1        0.0288
     38 H           8.3255   -4.7174    0.7137 H       1  UNL1        0.0288
     39 H           6.4098   -3.5630    2.8136 H       1  UNL1        0.0560
     40 H           7.9476   -2.8697    2.2159 H       1  UNL1        0.0560
     41 H          -2.1483    1.2127   -2.5788 H       1  UNL1        0.0638
     42 H          -2.3598    3.2532   -3.9400 H       1  UNL1        0.0647
     43 H           1.2401    2.2468   -6.0019 H       1  UNL1        0.0647
     44 H           1.4510    0.2098   -4.6353 H       1  UNL1        0.0638
@<TRIPOS>BOND
     1     1     2    1
     2     1    25    1
     3     1    26    1
     4     1    27    1
     5     2     3    1
     6     2    28    1
     7     2    29    1
     8     3     4    1
     9    15     3    1
    10     4     5    1
    11     4    30    1
    12     4    31    1
    13     5     6    2
    14     5     7   am
    15     7     8    1
    16     7    32    1
    17     8     9    1
    18     8    33    1
    19     8    34    1
    20     9    10    1
    21     9    14    1
    22     9    11    1
    23    11    12    1
    24    11    35    1
    25    11    36    1
    26    12    13    1
    27    12    37    1
    28    12    38    1
    29    13    14    1
    30    13    39    1
    31    13    40    1
    32    15    16    2
    33    15    17    2
    34    15    18    1
    35    18    24   ar
    36    18    19   ar
    37    19    20   ar
    38    19    41    1
    39    20    21   ar
    40    20    42    1
    41    21    22    1
    42    21    23   ar
    43    23    24   ar
    44    23    43    1
    45    24    44    1
