@<TRIPOS>MOLECULE
ZINC000016161758
 56 58 0 0 0
SMALL
GASTEIGER

@<TRIPOS>ATOM
      1 C           0.9242   -1.0377    0.7127 C.3     1  UNL1       -0.0613
      2 C           0.0137   -0.0360   -0.0004 C.3     1  UNL1       -0.0305
      3 C          -1.4033   -0.5487    0.0108 C.ar    1  UNL1       -0.0475
      4 C          -1.8550   -1.3508   -1.0211 C.ar    1  UNL1       -0.0568
      5 C          -3.1531   -1.8223   -1.0137 C.ar    1  UNL1       -0.0402
      6 C          -4.0049   -1.4904    0.0317 C.ar    1  UNL1        0.0334
      7 N          -5.3205   -1.9668    0.0423 N.am    1  UNL1       -0.2844
      8 C          -5.9972   -2.1032   -1.1152 C.2     1  UNL1        0.2330
      9 O          -5.4399   -1.8935   -2.1719 O.2     1  UNL1       -0.2740
     10 C          -7.4464   -2.5164   -1.0967 C.3     1  UNL1        0.0971
     11 N          -7.9499   -2.5930   -2.4703 N.3     1  UNL1       -0.1675
     12 C          -7.7569   -3.8156   -3.2541 C.3     1  UNL1        0.0250
     13 C          -8.8821   -4.8043   -2.9422 C.3     1  UNL1       -0.0132
     14 C          -8.6836   -6.0619   -3.7485 C.ar    1  UNL1       -0.0461
     15 C          -9.2427   -6.1710   -5.0080 C.ar    1  UNL1       -0.0585
     16 C          -9.0606   -7.3246   -5.7475 C.ar    1  UNL1       -0.0615
     17 C          -8.3189   -8.3689   -5.2278 C.ar    1  UNL1       -0.0617
     18 C          -7.7590   -8.2595   -3.9686 C.ar    1  UNL1       -0.0615
     19 C          -7.9376   -7.1042   -3.2308 C.ar    1  UNL1       -0.0585
     20 S          -8.7373   -1.2977   -3.1370 S.O2    1  UNL1        0.0613
     21 O          -9.6664   -1.8303   -4.0711 O.2     1  UNL1       -0.1528
     22 O          -9.1174   -0.4588   -2.0549 O.2     1  UNL1       -0.1528
     23 C          -7.5516   -0.3931   -4.0753 C.ar    1  UNL1        0.1055
     24 C          -6.8195    0.6149   -3.4761 C.ar    1  UNL1       -0.0353
     25 C          -5.8893    1.3247   -4.2122 C.ar    1  UNL1       -0.0599
     26 C          -5.6907    1.0261   -5.5472 C.ar    1  UNL1       -0.0616
     27 C          -6.4222    0.0175   -6.1461 C.ar    1  UNL1       -0.0599
     28 C          -7.3494   -0.6951   -5.4090 C.ar    1  UNL1       -0.0353
     29 C          -3.5481   -0.6851    1.0667 C.ar    1  UNL1       -0.0402
     30 C          -2.2474   -0.2207    1.0559 C.ar    1  UNL1       -0.0568
     31 H           1.9491   -0.6669    0.7045 H       1  UNL1        0.0233
     32 H           0.5910   -1.1621    1.7430 H       1  UNL1        0.0233
     33 H           0.8811   -1.9979    0.1985 H       1  UNL1        0.0233
     34 H           0.0568    0.9241    0.5138 H       1  UNL1        0.0311
     35 H           0.3470    0.0884   -1.0307 H       1  UNL1        0.0311
     36 H          -1.1921   -1.6086   -1.8338 H       1  UNL1        0.0621
     37 H          -3.5055   -2.4481   -1.8203 H       1  UNL1        0.0636
     38 H          -5.7455   -2.1990    0.8828 H       1  UNL1        0.1548
     39 H          -7.5399   -3.4924   -0.6205 H       1  UNL1        0.0539
     40 H          -8.0264   -1.7822   -0.5375 H       1  UNL1        0.0539
     41 H          -7.7712   -3.5722   -4.3164 H       1  UNL1        0.0447
     42 H          -6.7974   -4.2643   -2.9970 H       1  UNL1        0.0447
     43 H          -8.8679   -5.0477   -1.8799 H       1  UNL1        0.0326
     44 H          -9.8417   -4.3556   -3.1993 H       1  UNL1        0.0326
     45 H          -9.8222   -5.3551   -5.4141 H       1  UNL1        0.0620
     46 H          -9.4981   -7.4101   -6.7313 H       1  UNL1        0.0618
     47 H          -8.1772   -9.2705   -5.8053 H       1  UNL1        0.0618
     48 H          -7.1799   -9.0756   -3.5624 H       1  UNL1        0.0618
     49 H          -7.5001   -7.0187   -2.2471 H       1  UNL1        0.0620
     50 H          -6.9746    0.8482   -2.4331 H       1  UNL1        0.0637
     51 H          -5.3178    2.1126   -3.7443 H       1  UNL1        0.0618
     52 H          -4.9645    1.5811   -6.1225 H       1  UNL1        0.0618
     53 H          -6.2673   -0.2155   -7.1892 H       1  UNL1        0.0618
     54 H          -7.9208   -1.4831   -5.8768 H       1  UNL1        0.0637
     55 H          -4.2082   -0.4252    1.8811 H       1  UNL1        0.0636
     56 H          -1.8916    0.4056    1.8605 H       1  UNL1        0.0621
@<TRIPOS>BOND
     1     1     2    1
     2     1    31    1
     3     1    32    1
     4     1    33    1
     5     2     3    1
     6     2    34    1
     7     2    35    1
     8     3    30   ar
     9     3     4   ar
    10     4     5   ar
    11     4    36    1
    12     5     6   ar
    13     5    37    1
    14     6     7    1
    15     6    29   ar
    16     7     8   am
    17     7    38    1
    18     8     9    2
    19     8    10    1
    20    10    11    1
    21    10    39    1
    22    10    40    1
    23    11    12    1
    24    20    11    1
    25    12    13    1
    26    12    41    1
    27    12    42    1
    28    13    14    1
    29    13    43    1
    30    13    44    1
    31    14    19   ar
    32    14    15   ar
    33    15    16   ar
    34    15    45    1
    35    16    17   ar
    36    16    46    1
    37    17    18   ar
    38    17    47    1
    39    18    19   ar
    40    18    48    1
    41    19    49    1
    42    20    21    2
    43    20    22    2
    44    20    23    1
    45    23    28   ar
    46    23    24   ar
    47    24    25   ar
    48    24    50    1
    49    25    26   ar
    50    25    51    1
    51    26    27   ar
    52    26    52    1
    53    27    28   ar
    54    27    53    1
    55    28    54    1
    56    29    30   ar
    57    29    55    1
    58    30    56    1
