@<TRIPOS>MOLECULE
ZINC000058168664
 56 57 0 0 0
SMALL
GASTEIGER

@<TRIPOS>ATOM
      1 C          -0.0187    1.5258    0.0104 C.3     1  UNL1       -0.0507
      2 C           0.0021   -0.0041    0.0020 C.3     1  UNL1        0.0177
      3 N           0.6878   -0.4765   -1.2033 N.3     1  UNL1       -0.1771
      4 C           2.1478   -0.5966   -1.2159 C.3     1  UNL1        0.0177
      5 C           2.5532   -1.9514   -0.6319 C.3     1  UNL1       -0.0507
      6 S          -0.1875   -0.8749   -2.5515 S.O2    1  UNL1        0.0609
      7 O           0.6166   -1.7761   -3.3001 O.2     1  UNL1       -0.1528
      8 O          -1.4970   -1.1925   -2.1004 O.2     1  UNL1       -0.1528
      9 C          -0.3375    0.5853   -3.5262 C.ar    1  UNL1        0.1062
     10 C          -1.4071    1.4401   -3.3285 C.ar    1  UNL1       -0.0353
     11 C          -1.5321    2.5892   -4.0894 C.ar    1  UNL1       -0.0592
     12 C          -0.5896    2.8894   -5.0508 C.ar    1  UNL1       -0.0495
     13 C           0.4921    2.0310   -5.2553 C.ar    1  UNL1        0.0385
     14 C           1.5063    2.3467   -6.2837 C.2     1  UNL1        0.2443
     15 O           2.4472    1.5975   -6.4596 O.2     1  UNL1       -0.2702
     16 N           1.3877    3.4653   -7.0262 N.am    1  UNL1       -0.3088
     17 C           2.3926    3.7781   -8.0452 C.3     1  UNL1        0.0207
     18 H           3.3737    3.4516   -7.7002 H       1  UNL1        0.0495
     19 C           2.0423    3.0533   -9.3463 C.3     1  UNL1       -0.0466
     20 C           2.4153    5.2878   -8.2925 C.3     1  UNL1       -0.0324
     21 C           2.8864    6.0051   -7.0259 C.3     1  UNL1       -0.0249
     22 C           2.9092    7.5148   -7.2732 C.3     1  UNL1        0.0588
     23 H           1.9368    7.8536   -7.6309 H       1  UNL1        0.0596
     24 C           3.2965    8.2667   -5.9750 C.3     1  UNL1       -0.0245
     25 C           3.8775    9.5832   -6.5590 C.3     1  UNL1       -0.0271
     26 C           4.5422    9.0971   -7.8649 C.3     1  UNL1        0.0481
     27 O           3.9339    7.8491   -8.2227 O.3     1  UNL1       -0.3766
     28 C           0.6151    0.8765   -4.4809 C.ar    1  UNL1       -0.0232
     29 H           1.0039    1.9031    0.0027 H       1  UNL1        0.0243
     30 H          -0.5459    1.8868   -0.8726 H       1  UNL1        0.0243
     31 H          -0.5289    1.8773    0.9072 H       1  UNL1        0.0243
     32 H           0.5293   -0.3651    0.8851 H       1  UNL1        0.0441
     33 H          -1.0205   -0.3814    0.0098 H       1  UNL1        0.0441
     34 H           2.5098   -0.5199   -2.2412 H       1  UNL1        0.0441
     35 H           2.5833    0.2026   -0.6162 H       1  UNL1        0.0441
     36 H           2.1912   -2.0280    0.3934 H       1  UNL1        0.0243
     37 H           2.1177   -2.7506   -1.2316 H       1  UNL1        0.0243
     38 H           3.6395   -2.0407   -0.6413 H       1  UNL1        0.0243
     39 H          -2.1479    1.2095   -2.5773 H       1  UNL1        0.0637
     40 H          -2.3696    3.2522   -3.9304 H       1  UNL1        0.0618
     41 H          -0.6885    3.7863   -5.6442 H       1  UNL1        0.0625
     42 H           0.6369    4.0632   -6.8858 H       1  UNL1        0.1493
     43 H           1.0613    3.3798   -9.6913 H       1  UNL1        0.0247
     44 H           2.7901    3.2861  -10.1045 H       1  UNL1        0.0247
     45 H           2.0262    1.9778   -9.1701 H       1  UNL1        0.0247
     46 H           3.0983    5.5115   -9.1121 H       1  UNL1        0.0284
     47 H           1.4130    5.6287   -8.5516 H       1  UNL1        0.0284
     48 H           2.2035    5.7814   -6.2063 H       1  UNL1        0.0291
     49 H           3.8888    5.6642   -6.7668 H       1  UNL1        0.0291
     50 H           2.4194    8.4638   -5.3586 H       1  UNL1        0.0291
     51 H           4.0532    7.7181   -5.4142 H       1  UNL1        0.0291
     52 H           3.0822   10.2977   -6.7712 H       1  UNL1        0.0288
     53 H           4.6173   10.0138   -5.8841 H       1  UNL1        0.0288
     54 H           4.3783    9.8274   -8.6573 H       1  UNL1        0.0560
     55 H           5.6112    8.9563   -7.7055 H       1  UNL1        0.0560
     56 H           1.4496    0.2084   -4.6342 H       1  UNL1        0.0644
@<TRIPOS>BOND
     1     1     2    1
     2     1    29    1
     3     1    30    1
     4     1    31    1
     5     2     3    1
     6     2    32    1
     7     2    33    1
     8     3     4    1
     9     6     3    1
    10     4     5    1
    11     4    34    1
    12     4    35    1
    13     5    36    1
    14     5    37    1
    15     5    38    1
    16     6     7    2
    17     6     8    2
    18     6     9    1
    19     9    28   ar
    20     9    10   ar
    21    10    11   ar
    22    10    39    1
    23    11    12   ar
    24    11    40    1
    25    12    13   ar
    26    12    41    1
    27    13    14    1
    28    13    28   ar
    29    14    15    2
    30    14    16   am
    31    16    17    1
    32    16    42    1
    33    17    18    1
    34    17    19    1
    35    17    20    1
    36    19    43    1
    37    19    44    1
    38    19    45    1
    39    20    21    1
    40    20    46    1
    41    20    47    1
    42    21    22    1
    43    21    48    1
    44    21    49    1
    45    22    23    1
    46    22    27    1
    47    22    24    1
    48    24    25    1
    49    24    50    1
    50    24    51    1
    51    25    26    1
    52    25    52    1
    53    25    53    1
    54    26    27    1
    55    26    54    1
    56    26    55    1
    57    28    56    1
