@<TRIPOS>MOLECULE
ZINC000042036368
 41 43 0 0 0
SMALL
GASTEIGER

@<TRIPOS>ATOM
      1 C          -0.0173    1.4248    0.0099 C.3     1  UNL1        0.0371
      2 O           0.0021   -0.0041    0.0020 O.3     1  UNL1       -0.3738
      3 C          -1.2953   -0.6030    0.0112 C.3     1  UNL1        0.1235
      4 C          -1.1560   -2.1035    0.0018 C.2     1  UNL1        0.2413
      5 O          -0.0541   -2.6101   -0.0114 O.2     1  UNL1       -0.2731
      6 N          -2.2558   -2.8825    0.0081 N.am    1  UNL1       -0.2989
      7 C          -3.5974   -2.2834    0.0180 C.3     1  UNL1        0.0148
      8 C          -4.4063   -2.8665   -1.1449 C.3     1  UNL1       -0.0365
      9 C          -4.3993   -4.3940   -1.0506 C.3     1  UNL1       -0.0404
     10 C          -2.9614   -4.9068   -1.1575 C.3     1  UNL1        0.0352
     11 H          -2.5276   -4.5794   -2.1024 H       1  UNL1        0.0395
     12 C          -2.9586   -6.4126   -1.0978 C.ar    1  UNL1        0.1424
     13 N          -3.4072   -7.1485   -0.1138 N.ar    1  UNL1       -0.1334
     14 N          -3.2541   -8.3971   -0.3845 N.ar    1  UNL1       -0.1294
     15 C          -2.6905   -8.5247   -1.5747 C.ar    1  UNL1        0.1611
     16 C          -2.3029   -9.6352   -2.3490 C.ar    1  UNL1       -0.0165
     17 C          -1.7332   -9.4295   -3.5669 C.ar    1  UNL1       -0.0452
     18 C          -1.5400   -8.1179   -4.0338 C.ar    1  UNL1        0.0714
     19 C          -0.9094   -7.8881   -5.3830 C.3     1  UNL1        0.4188
     20 F           0.4837   -7.9065   -5.2559 F       1  UNL1       -0.1658
     21 F          -1.3107   -8.8986   -6.2635 F       1  UNL1       -0.1658
     22 F          -1.3158   -6.6461   -5.8823 F       1  UNL1       -0.1658
     23 C          -1.9165   -7.0633   -3.2806 C.ar    1  UNL1        0.0245
     24 N          -2.4943   -7.2550   -2.0602 N.ar    1  UNL1       -0.2856
     25 C          -2.1361   -4.3468   -0.0009 C.3     1  UNL1        0.0245
     26 H           1.0053    1.8021    0.0021 H       1  UNL1        0.0524
     27 H          -0.5445    1.7859   -0.8732 H       1  UNL1        0.0524
     28 H          -0.5275    1.7763    0.9067 H       1  UNL1        0.0524
     29 H          -1.8320   -0.2936    0.9080 H       1  UNL1        0.0656
     30 H          -1.8490   -0.2840   -0.8718 H       1  UNL1        0.0656
     31 H          -4.0937   -2.5145    0.9605 H       1  UNL1        0.0464
     32 H          -3.5159   -1.2028   -0.0991 H       1  UNL1        0.0464
     33 H          -5.4327   -2.5035   -1.0921 H       1  UNL1        0.0281
     34 H          -3.9590   -2.5583   -2.0898 H       1  UNL1        0.0281
     35 H          -4.8241   -4.7008   -0.0948 H       1  UNL1        0.0273
     36 H          -4.9948   -4.8107   -1.8629 H       1  UNL1        0.0273
     37 H          -2.4559  -10.6386   -1.9800 H       1  UNL1        0.0655
     38 H          -1.4301  -10.2706   -4.1726 H       1  UNL1        0.0625
     39 H          -1.7634   -6.0597   -3.6492 H       1  UNL1        0.0819
     40 H          -1.0908   -4.6285   -0.1279 H       1  UNL1        0.0471
     41 H          -2.5117   -4.7441    0.9420 H       1  UNL1        0.0471
@<TRIPOS>BOND
     1     1     2    1
     2     1    26    1
     3     1    27    1
     4     1    28    1
     5     2     3    1
     6     3     4    1
     7     3    29    1
     8     3    30    1
     9     4     5    2
    10     4     6   am
    11     6    25    1
    12     6     7    1
    13     7     8    1
    14     7    31    1
    15     7    32    1
    16     8     9    1
    17     8    33    1
    18     8    34    1
    19     9    10    1
    20     9    35    1
    21     9    36    1
    22    10    11    1
    23    10    12    1
    24    10    25    1
    25    12    24   ar
    26    12    13   ar
    27    13    14   ar
    28    14    15   ar
    29    15    24   ar
    30    15    16   ar
    31    16    17   ar
    32    16    37    1
    33    17    18   ar
    34    17    38    1
    35    18    19    1
    36    18    23   ar
    37    19    20    1
    38    19    21    1
    39    19    22    1
    40    23    24   ar
    41    23    39    1
    42    25    40    1
    43    25    41    1
