@<TRIPOS>MOLECULE
ZINC000009668686
 53 55 0 0 0
SMALL
GASTEIGER

@<TRIPOS>ATOM
      1 C          -0.0187    1.5258    0.0104 C.3     1  UNL1       -0.0507
      2 C           0.0021   -0.0041    0.0020 C.3     1  UNL1        0.0177
      3 N           0.6878   -0.4765   -1.2033 N.3     1  UNL1       -0.1771
      4 C           2.1478   -0.5966   -1.2159 C.3     1  UNL1        0.0177
      5 C           2.5532   -1.9514   -0.6319 C.3     1  UNL1       -0.0507
      6 S          -0.1875   -0.8749   -2.5515 S.O2    1  UNL1        0.0608
      7 O           0.6166   -1.7761   -3.3001 O.2     1  UNL1       -0.1528
      8 O          -1.4970   -1.1925   -2.1004 O.2     1  UNL1       -0.1528
      9 C          -0.3375    0.5853   -3.5262 C.ar    1  UNL1        0.1057
     10 C          -1.4064    1.4399   -3.3289 C.ar    1  UNL1       -0.0319
     11 C          -1.5263    2.5854   -4.0918 C.ar    1  UNL1       -0.0181
     12 C          -0.5728    2.8781   -5.0561 C.ar    1  UNL1        0.1213
     13 O          -0.6883    4.0045   -5.8076 O.3     1  UNL1       -0.4828
     14 C           0.3301    4.2420   -6.7815 C.3     1  UNL1        0.1651
     15 C           0.0367    5.5269   -7.5122 C.2     1  UNL1        0.2509
     16 O          -0.9477    6.1755   -7.2270 O.2     1  UNL1       -0.2721
     17 N           0.8681    5.9553   -8.4825 N.am    1  UNL1       -0.3084
     18 C           0.5828    7.2044   -9.1929 C.3     1  UNL1        0.0371
     19 C           1.6569    7.4548  -10.2199 C.ar    1  UNL1       -0.0266
     20 C           2.7868    8.1722   -9.8752 C.ar    1  UNL1       -0.0534
     21 C           3.7751    8.4045  -10.8140 C.ar    1  UNL1       -0.0158
     22 C           3.6343    7.9187  -12.1034 C.ar    1  UNL1        0.1662
     23 O           4.4453    8.0074  -13.1978 O.3     1  UNL1       -0.4526
     24 C           3.9840    6.9861  -14.1019 C.3     1  UNL1        0.2332
     25 O           2.5932    6.8316  -13.7628 O.3     1  UNL1       -0.4526
     26 C           2.4953    7.1957  -12.4509 C.ar    1  UNL1        0.1665
     27 C           1.5124    6.9615  -11.5036 C.ar    1  UNL1       -0.0115
     28 C           0.4989    2.0192   -5.2518 C.ar    1  UNL1       -0.0181
     29 C           0.6169    0.8775   -4.4830 C.ar    1  UNL1       -0.0319
     30 H           1.0039    1.9031    0.0027 H       1  UNL1        0.0243
     31 H          -0.5459    1.8868   -0.8726 H       1  UNL1        0.0243
     32 H          -0.5289    1.8773    0.9072 H       1  UNL1        0.0243
     33 H           0.5293   -0.3651    0.8851 H       1  UNL1        0.0441
     34 H          -1.0205   -0.3814    0.0098 H       1  UNL1        0.0441
     35 H           2.5098   -0.5199   -2.2412 H       1  UNL1        0.0441
     36 H           2.5833    0.2026   -0.6162 H       1  UNL1        0.0441
     37 H           2.1177   -2.7506   -1.2316 H       1  UNL1        0.0243
     38 H           3.6395   -2.0407   -0.6413 H       1  UNL1        0.0243
     39 H           2.1912   -2.0280    0.3934 H       1  UNL1        0.0243
     40 H          -2.1483    1.2116   -2.5781 H       1  UNL1        0.0638
     41 H          -2.3617    3.2523   -3.9379 H       1  UNL1        0.0655
     42 H           1.2971    4.3193   -6.2845 H       1  UNL1        0.0795
     43 H           0.3522    3.4164   -7.4928 H       1  UNL1        0.0795
     44 H           1.6554    5.4366   -8.7106 H       1  UNL1        0.1491
     45 H          -0.3842    7.1271   -9.6899 H       1  UNL1        0.0512
     46 H           0.5608    8.0300   -8.4815 H       1  UNL1        0.0512
     47 H           2.8979    8.5524   -8.8705 H       1  UNL1        0.0622
     48 H           4.6570    8.9653  -10.5418 H       1  UNL1        0.0655
     49 H           4.0920    7.3129  -15.1361 H       1  UNL1        0.1166
     50 H           4.5246    6.0544  -13.9352 H       1  UNL1        0.1166
     51 H           0.6311    6.3962  -11.7686 H       1  UNL1        0.0658
     52 H           1.2423    2.2447   -6.0021 H       1  UNL1        0.0655
     53 H           1.4512    0.2087   -4.6347 H       1  UNL1        0.0638
@<TRIPOS>BOND
     1     1     2    1
     2     1    30    1
     3     1    31    1
     4     1    32    1
     5     2     3    1
     6     2    33    1
     7     2    34    1
     8     3     4    1
     9     6     3    1
    10     4     5    1
    11     4    35    1
    12     4    36    1
    13     5    37    1
    14     5    38    1
    15     5    39    1
    16     6     7    2
    17     6     8    2
    18     6     9    1
    19     9    29   ar
    20     9    10   ar
    21    10    11   ar
    22    10    40    1
    23    11    12   ar
    24    11    41    1
    25    12    13    1
    26    12    28   ar
    27    13    14    1
    28    14    15    1
    29    14    42    1
    30    14    43    1
    31    15    16    2
    32    15    17   am
    33    17    18    1
    34    17    44    1
    35    18    19    1
    36    18    45    1
    37    18    46    1
    38    19    27   ar
    39    19    20   ar
    40    20    21   ar
    41    20    47    1
    42    21    22   ar
    43    21    48    1
    44    22    26   ar
    45    22    23    1
    46    23    24    1
    47    24    25    1
    48    24    49    1
    49    24    50    1
    50    25    26    1
    51    26    27   ar
    52    27    51    1
    53    28    29   ar
    54    28    52    1
    55    29    53    1
