@<TRIPOS>MOLECULE
ZINC000096121979
 41 42 0 0 0
SMALL
GASTEIGER

@<TRIPOS>ATOM
      1 C          -0.2266    0.4234    0.0423 C.3     1  UNL1       -0.0612
      2 C          -0.2193   -1.0718   -0.2821 C.3     1  UNL1       -0.0273
      3 C          -1.6587   -1.5673   -0.4357 C.3     1  UNL1       -0.0612
      4 C           0.5431   -1.3068   -1.5876 C.3     1  UNL1        0.0685
      5 S           2.2855   -0.8567   -1.3597 S.O2    1  UNL1       -0.0250
      6 O           2.3647    0.5426   -1.1253 O.2     1  UNL1       -0.1740
      7 O           2.8651   -1.7515   -0.4202 O.2     1  UNL1       -0.1740
      8 C           2.9807   -1.2086   -2.9979 C.3     1  UNL1        0.1081
      9 C           2.7851   -0.0674   -4.0124 C.3     1  UNL1        0.0387
     10 N           4.1756   -0.3339   -4.4288 N.am    1  UNL1       -0.2938
     11 C           4.8783   -0.1298   -5.5606 C.2     1  UNL1        0.2467
     12 O           4.3200    0.2909   -6.5550 O.2     1  UNL1       -0.2700
     13 C           6.3281   -0.4177   -5.5927 C.ar    1  UNL1        0.0369
     14 C           6.9991   -0.7684   -4.4202 C.ar    1  UNL1       -0.0491
     15 C           8.3520   -1.0362   -4.4571 C.ar    1  UNL1       -0.0494
     16 C           9.0435   -0.9573   -5.6528 C.ar    1  UNL1        0.0549
     17 C          10.5213   -1.2507   -5.6855 C.3     1  UNL1        0.4174
     18 F          10.7208   -2.6139   -5.9287 F       1  UNL1       -0.1659
     19 F          11.1229   -0.5025   -6.7031 F       1  UNL1       -0.1659
     20 F          11.0921   -0.9081   -4.4551 F       1  UNL1       -0.1659
     21 C           8.3842   -0.6106   -6.8188 C.ar    1  UNL1       -0.0494
     22 C           7.0305   -0.3454   -6.7966 C.ar    1  UNL1       -0.0491
     23 C           4.4877   -0.9138   -3.1080 C.3     1  UNL1        0.0387
     24 H           0.7989    0.7765    0.1517 H       1  UNL1        0.0233
     25 H          -0.7140    0.9682   -0.7663 H       1  UNL1        0.0233
     26 H          -0.7697    0.5909    0.9723 H       1  UNL1        0.0233
     27 H           0.2681   -1.6166    0.5265 H       1  UNL1        0.0311
     28 H          -2.1461   -1.0225   -1.2442 H       1  UNL1        0.0233
     29 H          -1.6535   -2.6325   -0.6667 H       1  UNL1        0.0233
     30 H          -2.2018   -1.3999    0.4944 H       1  UNL1        0.0233
     31 H           0.4728   -2.3585   -1.8651 H       1  UNL1        0.0502
     32 H           0.1095   -0.6929   -2.3771 H       1  UNL1        0.0502
     33 H           2.6966   -2.1897   -3.3783 H       1  UNL1        0.0567
     34 H           2.0460   -0.2865   -4.7830 H       1  UNL1        0.0484
     35 H           2.6441    0.9105   -3.5519 H       1  UNL1        0.0484
     36 H           6.4606   -0.8297   -3.4860 H       1  UNL1        0.0625
     37 H           8.8724   -1.3078   -3.5505 H       1  UNL1        0.0623
     38 H           8.9298   -0.5511   -7.7490 H       1  UNL1        0.0623
     39 H           6.5170   -0.0753   -7.7075 H       1  UNL1        0.0625
     40 H           4.8469   -0.1845   -2.3818 H       1  UNL1        0.0484
     41 H           5.1080   -1.8087   -3.1566 H       1  UNL1        0.0484
@<TRIPOS>BOND
     1     1     2    1
     2     1    24    1
     3     1    25    1
     4     1    26    1
     5     2     3    1
     6     2     4    1
     7     2    27    1
     8     3    28    1
     9     3    29    1
    10     3    30    1
    11     4     5    1
    12     4    31    1
    13     4    32    1
    14     5     6    2
    15     5     7    2
    16     5     8    1
    17     8    23    1
    18     8     9    1
    19     8    33    1
    20     9    10    1
    21     9    34    1
    22     9    35    1
    23    10    11   am
    24    10    23    1
    25    11    12    2
    26    11    13    1
    27    13    22   ar
    28    13    14   ar
    29    14    15   ar
    30    14    36    1
    31    15    16   ar
    32    15    37    1
    33    16    17    1
    34    16    21   ar
    35    17    18    1
    36    17    19    1
    37    17    20    1
    38    21    22   ar
    39    21    38    1
    40    22    39    1
    41    23    40    1
    42    23    41    1
