@<TRIPOS>MOLECULE
ZINC000012821194
 56 59 0 0 0
SMALL
GASTEIGER

@<TRIPOS>ATOM
      1 O           0.2194    0.1823    0.2758 O.2     1  UNL1       -0.2737
      2 C           0.0618    1.3759    0.1290 C.2     1  UNL1        0.2350
      3 N           1.1311    2.1932    0.0588 N.am    1  UNL1       -0.3109
      4 C           2.4839    1.6399    0.1598 C.3     1  UNL1        0.0233
      5 C           3.5364    2.1641   -0.8190 C.3     1  UNL1       -0.0328
      6 C           3.5927    2.5706    0.6549 C.3     1  UNL1       -0.0328
      7 C          -1.3296    1.9443    0.0189 C.3     1  UNL1        0.1129
      8 H          -1.4412    2.4483   -0.9411 H       1  UNL1        0.0609
      9 C          -1.5586    2.9316    1.1342 C.ar    1  UNL1       -0.0214
     10 C          -1.1314    2.6381    2.4157 C.ar    1  UNL1       -0.0566
     11 C          -1.3414    3.5437    3.4387 C.ar    1  UNL1       -0.0614
     12 C          -1.9783    4.7431    3.1802 C.ar    1  UNL1       -0.0617
     13 C          -2.4046    5.0370    1.8985 C.ar    1  UNL1       -0.0614
     14 C          -2.1907    4.1332    0.8746 C.ar    1  UNL1       -0.0566
     15 N          -2.3121    0.8568    0.1183 N.3     1  UNL1       -0.2854
     16 C          -2.1931    0.1556    1.4036 C.3     1  UNL1        0.0144
     17 C          -3.3446   -0.8457    1.5440 C.3     1  UNL1        0.0333
     18 N          -3.3533   -1.7168    0.3589 N.3     1  UNL1       -0.1741
     19 S          -3.3849   -3.3650    0.5157 S.O2    1  UNL1        0.0609
     20 O          -2.8426   -3.8930   -0.6870 O.2     1  UNL1       -0.1528
     21 O          -2.8538   -3.6560    1.8012 O.2     1  UNL1       -0.1528
     22 C          -5.0775   -3.8530    0.5546 C.ar    1  UNL1        0.1055
     23 C          -5.7484   -3.9254    1.7610 C.ar    1  UNL1       -0.0348
     24 C          -7.0763   -4.3082    1.7915 C.ar    1  UNL1       -0.0483
     25 C          -7.7335   -4.6181    0.6155 C.ar    1  UNL1        0.0549
     26 C          -9.1811   -5.0359    0.6488 C.3     1  UNL1        0.4174
     27 F          -9.9957   -3.9046    0.5319 F       1  UNL1       -0.1659
     28 F          -9.4392   -5.9084   -0.4139 F       1  UNL1       -0.1659
     29 F          -9.4520   -5.6826    1.8594 F       1  UNL1       -0.1659
     30 C          -7.0630   -4.5444   -0.5910 C.ar    1  UNL1       -0.0483
     31 C          -5.7361   -4.1579   -0.6219 C.ar    1  UNL1       -0.0348
     32 C          -3.3338   -1.0851   -0.9692 C.3     1  UNL1        0.0333
     33 C          -2.1828   -0.0743   -1.0106 C.3     1  UNL1        0.0144
     34 H           1.0051    3.1478   -0.0586 H       1  UNL1        0.1490
     35 H           2.5421    0.5901    0.4475 H       1  UNL1        0.0498
     36 H           4.2874    1.4592   -1.1757 H       1  UNL1        0.0284
     37 H           3.2225    2.9207   -1.5382 H       1  UNL1        0.0284
     38 H           3.3157    3.5947    0.9055 H       1  UNL1        0.0284
     39 H           4.3807    2.1332    1.2679 H       1  UNL1        0.0284
     40 H          -0.6339    1.7010    2.6177 H       1  UNL1        0.0621
     41 H          -1.0083    3.3141    4.4401 H       1  UNL1        0.0618
     42 H          -2.1430    5.4503    3.9796 H       1  UNL1        0.0618
     43 H          -2.9024    5.9739    1.6965 H       1  UNL1        0.0618
     44 H          -2.5238    4.3628   -0.1268 H       1  UNL1        0.0621
     45 H          -1.2423   -0.3759    1.4414 H       1  UNL1        0.0440
     46 H          -2.2387    0.8787    2.2180 H       1  UNL1        0.0440
     47 H          -3.1985   -1.4484    2.4403 H       1  UNL1        0.0456
     48 H          -4.2908   -0.3087    1.6107 H       1  UNL1        0.0456
     49 H          -5.2350   -3.6833    2.6798 H       1  UNL1        0.0637
     50 H          -7.6003   -4.3655    2.7342 H       1  UNL1        0.0624
     51 H          -7.5765   -4.7861   -1.5099 H       1  UNL1        0.0624
     52 H          -5.2123   -4.1002   -1.5646 H       1  UNL1        0.0637
     53 H          -3.1806   -1.8460   -1.7344 H       1  UNL1        0.0456
     54 H          -4.2789   -0.5710   -1.1441 H       1  UNL1        0.0456
     55 H          -2.2208    0.4821   -1.9471 H       1  UNL1        0.0440
     56 H          -1.2320   -0.6026   -0.9392 H       1  UNL1        0.0440
@<TRIPOS>BOND
     1     1     2    2
     2     2     3   am
     3     2     7    1
     4     3     4    1
     5     3    34    1
     6     4     6    1
     7     4     5    1
     8     4    35    1
     9     5     6    1
    10     5    36    1
    11     5    37    1
    12     6    38    1
    13     6    39    1
    14     7     8    1
    15     7     9    1
    16     7    15    1
    17     9    14   ar
    18     9    10   ar
    19    10    11   ar
    20    10    40    1
    21    11    12   ar
    22    11    41    1
    23    12    13   ar
    24    12    42    1
    25    13    14   ar
    26    13    43    1
    27    14    44    1
    28    15    33    1
    29    15    16    1
    30    16    17    1
    31    16    45    1
    32    16    46    1
    33    17    18    1
    34    17    47    1
    35    17    48    1
    36    19    18    1
    37    18    32    1
    38    19    20    2
    39    19    21    2
    40    19    22    1
    41    22    31   ar
    42    22    23   ar
    43    23    24   ar
    44    23    49    1
    45    24    25   ar
    46    24    50    1
    47    25    26    1
    48    25    30   ar
    49    26    27    1
    50    26    28    1
    51    26    29    1
    52    30    31   ar
    53    30    51    1
    54    31    52    1
    55    32    33    1
    56    32    53    1
    57    32    54    1
    58    33    55    1
    59    33    56    1
