@<TRIPOS>MOLECULE
ZINC000012917010
 63 66 0 0 0
SMALL
GASTEIGER

@<TRIPOS>ATOM
      1 O          -0.2487   -0.3774   -0.1406 O.2     1  UNL1       -0.1528
      2 S          -0.3023    1.0367   -0.2698 S.O2    1  UNL1        0.0609
      3 O           0.8545    1.8475   -0.4229 O.2     1  UNL1       -0.1528
      4 C          -1.3315    1.3705   -1.6605 C.ar    1  UNL1        0.1055
      5 C          -2.2675    0.4382   -2.0674 C.ar    1  UNL1       -0.0348
      6 C          -3.0749    0.7001   -3.1584 C.ar    1  UNL1       -0.0483
      7 C          -2.9467    1.8946   -3.8423 C.ar    1  UNL1        0.0549
      8 C          -3.8265    2.1799   -5.0320 C.3     1  UNL1        0.4174
      9 F          -4.9951    2.8197   -4.6050 F       1  UNL1       -0.1659
     10 F          -3.1432    3.0073   -5.9296 F       1  UNL1       -0.1659
     11 F          -4.1582    0.9776   -5.6658 F       1  UNL1       -0.1659
     12 C          -2.0116    2.8275   -3.4346 C.ar    1  UNL1       -0.0483
     13 C          -1.2068    2.5672   -2.3412 C.ar    1  UNL1       -0.0348
     14 N          -1.0935    1.5992    1.0718 N.3     1  UNL1       -0.1741
     15 C          -0.9016    2.9811    1.5373 C.3     1  UNL1        0.0333
     16 C          -2.2785    3.6261    1.7282 C.3     1  UNL1        0.0135
     17 N          -3.0935    2.7808    2.6109 N.3     1  UNL1       -0.2973
     18 C          -4.3566    3.4459    2.9576 C.3     1  UNL1        0.0272
     19 C          -5.0610    2.6578    4.0638 C.3     1  UNL1        0.0911
     20 H          -5.1875    1.6223    3.7481 H       1  UNL1        0.0629
     21 O          -4.2724    2.6998    5.2547 O.3     1  UNL1       -0.3882
     22 C          -6.4323    3.2785    4.3381 C.3     1  UNL1        0.0756
     23 O          -7.1374    2.4756    5.2869 O.3     1  UNL1       -0.3694
     24 C          -8.4003    3.0157    5.6810 C.3     1  UNL1        0.0840
     25 H          -8.3448    4.1043    5.6699 H       1  UNL1        0.0646
     26 C          -9.4738    2.5562    4.6965 C.3     1  UNL1       -0.0221
     27 C         -10.8446    2.9608    5.2513 C.3     1  UNL1       -0.0464
     28 C         -11.1420    2.0989    6.4766 C.3     1  UNL1       -0.0272
     29 C          -9.9875    2.1369    7.4434 C.ar    1  UNL1       -0.0417
     30 C         -10.2258    1.7353    8.7512 C.ar    1  UNL1       -0.0582
     31 C          -9.2083    1.7419    9.6831 C.ar    1  UNL1       -0.0615
     32 C          -7.9410    2.1507    9.3126 C.ar    1  UNL1       -0.0614
     33 C          -7.7028    2.5524    8.0143 C.ar    1  UNL1       -0.0559
     34 C          -8.7268    2.5492    7.0755 C.ar    1  UNL1       -0.0157
     35 C          -3.3400    1.4637    2.0089 C.3     1  UNL1        0.0135
     36 C          -2.0113    0.7320    1.8260 C.3     1  UNL1        0.0333
     37 H          -2.3677   -0.4950   -1.5330 H       1  UNL1        0.0637
     38 H          -3.8057   -0.0286   -3.4767 H       1  UNL1        0.0624
     39 H          -1.9116    3.7608   -3.9687 H       1  UNL1        0.0624
     40 H          -0.4762    3.2960   -2.0227 H       1  UNL1        0.0637
     41 H          -0.3647    2.9768    2.4858 H       1  UNL1        0.0456
     42 H          -0.3342    3.5422    0.7947 H       1  UNL1        0.0456
     43 H          -2.1592    4.6121    2.1772 H       1  UNL1        0.0440
     44 H          -2.7717    3.7237    0.7610 H       1  UNL1        0.0440
     45 H          -4.1505    4.4576    3.3071 H       1  UNL1        0.0453
     46 H          -4.9980    3.4891    2.0774 H       1  UNL1        0.0453
     47 H          -4.1189    3.5923    5.5937 H       1  UNL1        0.2099
     48 H          -6.3025    4.2840    4.7383 H       1  UNL1        0.0586
     49 H          -7.0012    3.3275    3.4097 H       1  UNL1        0.0586
     50 H          -9.3137    3.0336    3.7297 H       1  UNL1        0.0294
     51 H          -9.4287    1.4731    4.5834 H       1  UNL1        0.0294
     52 H         -10.8291    4.0125    5.5373 H       1  UNL1        0.0269
     53 H         -11.6104    2.7974    4.4930 H       1  UNL1        0.0269
     54 H         -12.0377    2.4743    6.9714 H       1  UNL1        0.0313
     55 H         -11.3117    1.0699    6.1597 H       1  UNL1        0.0313
     56 H         -11.2157    1.4155    9.0413 H       1  UNL1        0.0620
     57 H          -9.4014    1.4284   10.6984 H       1  UNL1        0.0618
     58 H          -7.1400    2.1560   10.0370 H       1  UNL1        0.0618
     59 H          -6.7123    2.8717    7.7257 H       1  UNL1        0.0621
     60 H          -3.9905    0.8815    2.6615 H       1  UNL1        0.0440
     61 H          -3.8184    1.5914    1.0378 H       1  UNL1        0.0440
     62 H          -2.1763   -0.1948    1.2766 H       1  UNL1        0.0456
     63 H          -1.5779    0.5106    2.8013 H       1  UNL1        0.0456
@<TRIPOS>BOND
     1     1     2    2
     2     2     3    2
     3     2     4    1
     4     2    14    1
     5     4    13   ar
     6     4     5   ar
     7     5     6   ar
     8     5    37    1
     9     6     7   ar
    10     6    38    1
    11     7     8    1
    12     7    12   ar
    13     8     9    1
    14     8    10    1
    15     8    11    1
    16    12    13   ar
    17    12    39    1
    18    13    40    1
    19    14    36    1
    20    14    15    1
    21    15    16    1
    22    15    41    1
    23    15    42    1
    24    16    17    1
    25    16    43    1
    26    16    44    1
    27    17    18    1
    28    17    35    1
    29    18    19    1
    30    18    45    1
    31    18    46    1
    32    19    20    1
    33    19    21    1
    34    19    22    1
    35    21    47    1
    36    22    23    1
    37    22    48    1
    38    22    49    1
    39    23    24    1
    40    24    25    1
    41    24    34    1
    42    24    26    1
    43    26    27    1
    44    26    50    1
    45    26    51    1
    46    27    28    1
    47    27    52    1
    48    27    53    1
    49    28    29    1
    50    28    54    1
    51    28    55    1
    52    29    34   ar
    53    29    30   ar
    54    30    31   ar
    55    30    56    1
    56    31    32   ar
    57    31    57    1
    58    32    33   ar
    59    32    58    1
    60    33    34   ar
    61    33    59    1
    62    35    36    1
    63    35    60    1
    64    35    61    1
    65    36    62    1
    66    36    63    1
