@<TRIPOS>MOLECULE
ZINC000024712242
 40 41 0 0 0
SMALL
GASTEIGER

@<TRIPOS>ATOM
      1 C           0.4686    1.5188   -0.1560 C.3     1  UNL1        0.0029
      2 N           0.5007    0.0543   -0.1426 N.am    1  UNL1       -0.3063
      3 C           1.0700   -0.6554    1.0057 C.3     1  UNL1        0.0029
      4 C           0.0066   -0.6403   -1.1866 C.2     1  UNL1        0.2340
      5 O          -0.4646   -0.0528   -2.1372 O.2     1  UNL1       -0.2738
      6 C           0.0397   -2.1468   -1.1728 C.3     1  UNL1        0.1080
      7 H           0.9789   -2.4929   -0.7411 H       1  UNL1        0.0576
      8 C          -1.1476   -2.6903   -0.3504 C.3     1  UNL1       -0.0260
      9 C          -2.2024   -3.0206   -1.4393 C.3     1  UNL1       -0.0366
     10 C          -1.3054   -3.5167   -2.6008 C.3     1  UNL1        0.0214
     11 N          -0.1013   -2.6626   -2.5423 N.3     1  UNL1       -0.1647
     12 S           0.9149   -2.3390   -3.8092 S.O2    1  UNL1        0.0615
     13 O           0.1235   -2.4120   -4.9871 O.2     1  UNL1       -0.1528
     14 O           1.6583   -1.1848   -3.4426 O.2     1  UNL1       -0.1528
     15 C           2.0704   -3.6659   -3.9031 C.ar    1  UNL1        0.1060
     16 C           3.1994   -3.6569   -3.1058 C.ar    1  UNL1       -0.0353
     17 C           4.1060   -4.6980   -3.1795 C.ar    1  UNL1       -0.0594
     18 C           3.8832   -5.7481   -4.0501 C.ar    1  UNL1       -0.0500
     19 C           2.7534   -5.7576   -4.8470 C.ar    1  UNL1        0.0567
     20 C           2.5107   -6.9023   -5.7966 C.3     1  UNL1        0.4175
     21 F           3.5576   -7.8246   -5.6925 F       1  UNL1       -0.1659
     22 F           1.3029   -7.5293   -5.4722 F       1  UNL1       -0.1659
     23 F           2.4465   -6.4158   -7.1067 F       1  UNL1       -0.1659
     24 C           1.8449   -4.7189   -4.7702 C.ar    1  UNL1       -0.0237
     25 H           1.3851    1.8983   -0.6077 H       1  UNL1        0.0428
     26 H          -0.3897    1.8581   -0.7360 H       1  UNL1        0.0428
     27 H           0.3863    1.8899    0.8656 H       1  UNL1        0.0428
     28 H           0.2866   -0.8476    1.7388 H       1  UNL1        0.0428
     29 H           1.4963   -1.6018    0.6730 H       1  UNL1        0.0428
     30 H           1.8505   -0.0448    1.4597 H       1  UNL1        0.0428
     31 H          -0.8602   -3.5901    0.1936 H       1  UNL1        0.0286
     32 H          -1.5241   -1.9291    0.3329 H       1  UNL1        0.0286
     33 H          -2.8774   -3.8077   -1.1034 H       1  UNL1        0.0279
     34 H          -2.7580   -2.1285   -1.7283 H       1  UNL1        0.0279
     35 H          -1.0350   -4.5620   -2.4515 H       1  UNL1        0.0444
     36 H          -1.8156   -3.3886   -3.5555 H       1  UNL1        0.0444
     37 H           3.3735   -2.8363   -2.4255 H       1  UNL1        0.0637
     38 H           4.9885   -4.6906   -2.5570 H       1  UNL1        0.0618
     39 H           4.5918   -6.5611   -4.1082 H       1  UNL1        0.0623
     40 H           0.9624   -4.7263   -5.3927 H       1  UNL1        0.0642
@<TRIPOS>BOND
     1     1     2    1
     2     1    25    1
     3     1    26    1
     4     1    27    1
     5     2     3    1
     6     2     4   am
     7     3    28    1
     8     3    29    1
     9     3    30    1
    10     4     5    2
    11     4     6    1
    12     6     7    1
    13     6    11    1
    14     6     8    1
    15     8     9    1
    16     8    31    1
    17     8    32    1
    18     9    10    1
    19     9    33    1
    20     9    34    1
    21    10    11    1
    22    10    35    1
    23    10    36    1
    24    12    11    1
    25    12    13    2
    26    12    14    2
    27    12    15    1
    28    15    24   ar
    29    15    16   ar
    30    16    17   ar
    31    16    37    1
    32    17    18   ar
    33    17    38    1
    34    18    19   ar
    35    18    39    1
    36    19    20    1
    37    19    24   ar
    38    20    21    1
    39    20    22    1
    40    20    23    1
    41    24    40    1
