@<TRIPOS>MOLECULE
ZINC000079017702
 48 49 0 0 0
SMALL
GASTEIGER

@<TRIPOS>ATOM
      1 C          -0.0187    1.5258    0.0104 C.3     1  UNL1       -0.0253
      2 C           0.0021   -0.0041    0.0020 C.3     1  UNL1        0.1068
      3 C           0.7421   -0.5109    1.2415 C.3     1  UNL1       -0.0253
      4 C          -1.4333   -0.5336    0.0129 C.3     1  UNL1       -0.0253
      5 O           0.6817   -0.4723   -1.1926 O.3     1  UNL1       -0.4445
      6 C           1.9630   -0.0923   -1.3556 C.2     1  UNL1        0.4035
      7 O           2.4986    0.6115   -0.5223 O.2     1  UNL1       -0.2262
      8 N           2.6515   -0.4924   -2.4429 N.am    1  UNL1       -0.2636
      9 C           2.0147   -1.3386   -3.4619 C.3     1  UNL1        0.0323
     10 C           2.8656   -2.6002   -3.6529 C.3     1  UNL1        0.0379
     11 N           4.2665   -2.1977   -3.8411 N.3     1  UNL1       -0.1567
     12 S           5.1121   -2.6884   -5.1777 S.O2    1  UNL1        0.0621
     13 O           6.4874   -2.6359   -4.8240 O.2     1  UNL1       -0.1528
     14 O           4.4743   -3.8691   -5.6449 O.2     1  UNL1       -0.1528
     15 C           4.8720   -1.4666   -6.4244 C.ar    1  UNL1        0.1055
     16 C           3.8103   -1.5750   -7.3030 C.ar    1  UNL1       -0.0348
     17 C           3.6220   -0.6164   -8.2811 C.ar    1  UNL1       -0.0483
     18 C           4.4950    0.4507   -8.3802 C.ar    1  UNL1        0.0549
     19 C           4.2899    1.4954   -9.4468 C.3     1  UNL1        0.4174
     20 F           3.4701    2.5144   -8.9500 F       1  UNL1       -0.1659
     21 F           5.5275    2.0320   -9.8181 F       1  UNL1       -0.1659
     22 F           3.6819    0.9098  -10.5624 F       1  UNL1       -0.1659
     23 C           5.5559    0.5599   -7.5007 C.ar    1  UNL1       -0.0483
     24 C           5.7420   -0.3966   -6.5202 C.ar    1  UNL1       -0.0348
     25 C           4.9033   -1.3514   -2.8222 C.3     1  UNL1        0.1336
     26 H           4.9655   -1.8968   -1.8804 H       1  UNL1        0.0652
     27 C           6.2558   -0.9767   -3.2661 C.1     1  UNL1        0.0847
     28 N           7.2996   -0.6874   -3.6088 N.1     1  UNL1       -0.1948
     29 C           4.0506   -0.0852   -2.6340 C.3     1  UNL1        0.0481
     30 H           1.0039    1.9031    0.0027 H       1  UNL1        0.0268
     31 H          -0.5459    1.8868   -0.8726 H       1  UNL1        0.0268
     32 H          -0.5289    1.8773    0.9072 H       1  UNL1        0.0268
     33 H           0.2319   -0.1594    2.1383 H       1  UNL1        0.0268
     34 H           0.7568   -1.6008    1.2356 H       1  UNL1        0.0268
     35 H           1.7647   -0.1336    1.2338 H       1  UNL1        0.0268
     36 H          -1.9605   -0.1726   -0.8702 H       1  UNL1        0.0268
     37 H          -1.4185   -1.6235    0.0069 H       1  UNL1        0.0268
     38 H          -1.9435   -0.1821    0.9097 H       1  UNL1        0.0268
     39 H           1.0143   -1.6186   -3.1318 H       1  UNL1        0.0479
     40 H           1.9525   -0.7932   -4.4036 H       1  UNL1        0.0479
     41 H           2.7827   -3.2344   -2.7703 H       1  UNL1        0.0460
     42 H           2.5203   -3.1448   -4.5316 H       1  UNL1        0.0460
     43 H           3.1282   -2.4087   -7.2255 H       1  UNL1        0.0637
     44 H           2.7929   -0.7015   -8.9679 H       1  UNL1        0.0624
     45 H           6.2378    1.3938   -7.5780 H       1  UNL1        0.0624
     46 H           6.5709   -0.3114   -5.8331 H       1  UNL1        0.0637
     47 H           4.1356    0.5477   -3.5173 H       1  UNL1        0.0492
     48 H           4.3949    0.4604   -1.7554 H       1  UNL1        0.0492
@<TRIPOS>BOND
     1     1     2    1
     2     1    30    1
     3     1    31    1
     4     1    32    1
     5     2     3    1
     6     2     4    1
     7     2     5    1
     8     3    33    1
     9     3    34    1
    10     3    35    1
    11     4    36    1
    12     4    37    1
    13     4    38    1
    14     5     6    1
    15     6     7    2
    16     6     8   am
    17     8    29    1
    18     8     9    1
    19     9    10    1
    20     9    39    1
    21     9    40    1
    22    10    11    1
    23    10    41    1
    24    10    42    1
    25    12    11    1
    26    11    25    1
    27    12    13    2
    28    12    14    2
    29    12    15    1
    30    15    24   ar
    31    15    16   ar
    32    16    17   ar
    33    16    43    1
    34    17    18   ar
    35    17    44    1
    36    18    19    1
    37    18    23   ar
    38    19    20    1
    39    19    21    1
    40    19    22    1
    41    23    24   ar
    42    23    45    1
    43    24    46    1
    44    25    26    1
    45    25    27    1
    46    25    29    1
    47    27    28    3
    48    29    47    1
    49    29    48    1
