@<TRIPOS>MOLECULE
ZINC000585146899
 48 49 0 0 0
SMALL
GASTEIGER

@<TRIPOS>ATOM
      1 C          -0.0187    1.5258    0.0104 C.3     1  UNL1       -0.0612
      2 C           0.0021   -0.0041    0.0020 C.3     1  UNL1       -0.0273
      3 C           0.7421   -0.5109    1.2415 C.3     1  UNL1       -0.0612
      4 C          -1.4333   -0.5336    0.0129 C.3     1  UNL1        0.0684
      5 S          -1.4124   -2.3405   -0.1461 S.O2    1  UNL1       -0.0267
      6 O          -0.8980   -2.6764   -1.4274 O.2     1  UNL1       -0.1740
      7 O          -0.8007   -2.8899    1.0129 O.2     1  UNL1       -0.1740
      8 C          -3.1814   -2.7404   -0.1106 C.3     1  UNL1        0.0912
      9 H          -3.6677   -2.3175   -0.9897 H       1  UNL1        0.0549
     10 C          -3.8125   -2.1534    1.1541 C.3     1  UNL1       -0.0283
     11 C          -5.3114   -2.4620    1.1687 C.3     1  UNL1       -0.0368
     12 C          -5.5159   -3.9801    1.1862 C.3     1  UNL1        0.0206
     13 N          -4.7899   -4.5681    0.0523 N.3     1  UNL1       -0.1748
     14 S          -5.5662   -5.5576   -1.0250 S.O2    1  UNL1        0.0609
     15 O          -4.5627   -6.3689   -1.6199 O.2     1  UNL1       -0.1528
     16 O          -6.6920   -6.0905   -0.3409 O.2     1  UNL1       -0.1528
     17 C          -6.2034   -4.5328   -2.3088 C.ar    1  UNL1        0.1055
     18 C          -7.4711   -3.9929   -2.1973 C.ar    1  UNL1       -0.0348
     19 C          -7.9710   -3.1889   -3.2045 C.ar    1  UNL1       -0.0483
     20 C          -7.2030   -2.9244   -4.3231 C.ar    1  UNL1        0.0549
     21 C          -7.7482   -2.0483   -5.4214 C.3     1  UNL1        0.4174
     22 F          -7.4127   -0.7147   -5.1640 F       1  UNL1       -0.1659
     23 F          -7.1976   -2.4394   -6.6466 F       1  UNL1       -0.1659
     24 F          -9.1402   -2.1773   -5.4733 F       1  UNL1       -0.1659
     25 C          -5.9348   -3.4632   -4.4340 C.ar    1  UNL1       -0.0483
     26 C          -5.4335   -4.2641   -3.4250 C.ar    1  UNL1       -0.0348
     27 C          -3.3619   -4.2616   -0.1084 C.3     1  UNL1        0.0427
     28 H           1.0039    1.9031    0.0027 H       1  UNL1        0.0233
     29 H          -0.5459    1.8868   -0.8726 H       1  UNL1        0.0233
     30 H          -0.5289    1.8773    0.9072 H       1  UNL1        0.0233
     31 H           0.5123   -0.3556   -0.8948 H       1  UNL1        0.0311
     32 H           0.2319   -0.1594    2.1383 H       1  UNL1        0.0233
     33 H           0.7568   -1.6008    1.2356 H       1  UNL1        0.0233
     34 H           1.7647   -0.1336    1.2338 H       1  UNL1        0.0233
     35 H          -1.9156   -0.2570    0.9504 H       1  UNL1        0.0502
     36 H          -1.9862   -0.1019   -0.8214 H       1  UNL1        0.0502
     37 H          -3.3423   -2.5946    2.0329 H       1  UNL1        0.0284
     38 H          -3.6639   -1.0736    1.1665 H       1  UNL1        0.0284
     39 H          -5.7644   -2.0236    2.0580 H       1  UNL1        0.0279
     40 H          -5.7780   -2.0422    0.2776 H       1  UNL1        0.0279
     41 H          -5.1300   -4.3901    2.1195 H       1  UNL1        0.0444
     42 H          -6.5784   -4.2066    1.0968 H       1  UNL1        0.0444
     43 H          -8.0710   -4.1995   -1.3234 H       1  UNL1        0.0637
     44 H          -8.9616   -2.7676   -3.1177 H       1  UNL1        0.0624
     45 H          -5.3347   -3.2563   -5.3078 H       1  UNL1        0.0624
     46 H          -4.4427   -4.6850   -3.5117 H       1  UNL1        0.0637
     47 H          -3.0035   -4.6742   -1.0515 H       1  UNL1        0.0463
     48 H          -2.7998   -4.6943    0.7192 H       1  UNL1        0.0463
@<TRIPOS>BOND
     1     1     2    1
     2     1    28    1
     3     1    29    1
     4     1    30    1
     5     2     3    1
     6     2     4    1
     7     2    31    1
     8     3    32    1
     9     3    33    1
    10     3    34    1
    11     4     5    1
    12     4    35    1
    13     4    36    1
    14     5     6    2
    15     5     7    2
    16     5     8    1
    17     8     9    1
    18     8    27    1
    19     8    10    1
    20    10    11    1
    21    10    37    1
    22    10    38    1
    23    11    12    1
    24    11    39    1
    25    11    40    1
    26    12    13    1
    27    12    41    1
    28    12    42    1
    29    14    13    1
    30    13    27    1
    31    14    15    2
    32    14    16    2
    33    14    17    1
    34    17    26   ar
    35    17    18   ar
    36    18    19   ar
    37    18    43    1
    38    19    20   ar
    39    19    44    1
    40    20    21    1
    41    20    25   ar
    42    21    22    1
    43    21    23    1
    44    21    24    1
    45    25    26   ar
    46    25    45    1
    47    26    46    1
    48    27    47    1
    49    27    48    1
