@<TRIPOS>MOLECULE
ZINC000000663902
 50 52 0 0 0
SMALL
GASTEIGER

@<TRIPOS>ATOM
      1 C           0.0090    1.5300   -0.0199 C.3     1  UNL1       -0.0397
      2 C           0.0220    0.0230   -0.0199 C.ar    1  UNL1       -0.0503
      3 C           0.0222   -0.6682   -1.2170 C.ar    1  UNL1       -0.0570
      4 C           0.0341   -2.0505   -1.2170 C.ar    1  UNL1       -0.0351
      5 C           0.0464   -2.7415   -0.0198 C.ar    1  UNL1        0.1055
      6 S           0.0610   -4.5035   -0.0198 S.O2    1  UNL1        0.0609
      7 O          -0.4733   -4.9092    1.2329 O.2     1  UNL1       -0.1528
      8 O          -0.4869   -4.9093   -1.2665 O.2     1  UNL1       -0.1528
      9 N           1.6468   -4.9805   -0.0284 N.3     1  UNL1       -0.1765
     10 C           2.3585   -5.1904   -1.2965 C.3     1  UNL1        0.0212
     11 C           3.6446   -4.3581   -1.2837 C.3     1  UNL1       -0.0274
     12 C           4.4622   -4.7090   -0.0385 C.3     1  UNL1        0.0383
     13 C           5.7442   -3.9169   -0.0401 C.2     1  UNL1        0.2204
     14 O           5.9807   -3.1477   -0.9475 O.2     1  UNL1       -0.2752
     15 N           6.6280   -4.0633    0.9669 N.am    1  UNL1       -0.2853
     16 C           7.8603   -3.4022    0.9179 C.ar    1  UNL1        0.0334
     17 C           8.9973   -4.0105    1.4334 C.ar    1  UNL1       -0.0399
     18 C          10.2121   -3.3553    1.3836 C.ar    1  UNL1       -0.0484
     19 C          10.2969   -2.0947    0.8215 C.ar    1  UNL1        0.0549
     20 C          11.6239   -1.3825    0.7692 C.3     1  UNL1        0.4174
     21 F          12.2788   -1.7036   -0.4246 F       1  UNL1       -0.1659
     22 F          11.4141   -0.0006    0.8289 F       1  UNL1       -0.1659
     23 F          12.4107   -1.7820    1.8548 F       1  UNL1       -0.1659
     24 C           9.1666   -1.4865    0.3068 C.ar    1  UNL1       -0.0484
     25 C           7.9499   -2.1388    0.3485 C.ar    1  UNL1       -0.0399
     26 C           3.6547   -4.3695    1.2164 C.3     1  UNL1       -0.0274
     27 C           2.3705   -5.1960    1.2320 C.3     1  UNL1        0.0212
     28 C           0.0476   -2.0503    1.1773 C.ar    1  UNL1       -0.0351
     29 C           0.0395   -0.6680    1.1772 C.ar    1  UNL1       -0.0570
     30 H           1.0334    1.9022   -0.0299 H       1  UNL1        0.0278
     31 H          -0.5165    1.8888   -0.9049 H       1  UNL1        0.0278
     32 H          -0.4994    1.8890    0.8749 H       1  UNL1        0.0278
     33 H           0.0126   -0.1283   -2.1523 H       1  UNL1        0.0621
     34 H           0.0335   -2.5905   -2.1523 H       1  UNL1        0.0637
     35 H           2.6075   -6.2460   -1.4054 H       1  UNL1        0.0444
     36 H           1.7269   -4.8742   -2.1267 H       1  UNL1        0.0444
     37 H           4.2293   -4.5783   -2.1768 H       1  UNL1        0.0285
     38 H           3.3917   -3.2980   -1.2661 H       1  UNL1        0.0285
     39 H           4.6934   -5.7742   -0.0442 H       1  UNL1        0.0395
     40 H           6.4099   -4.6270    1.7255 H       1  UNL1        0.1548
     41 H           8.9316   -4.9947    1.8732 H       1  UNL1        0.0636
     42 H          11.0967   -3.8278    1.7843 H       1  UNL1        0.0624
     43 H           9.2361   -0.5019   -0.1315 H       1  UNL1        0.0624
     44 H           7.0676   -1.6632   -0.0536 H       1  UNL1        0.0636
     45 H           4.2466   -4.5979    2.1027 H       1  UNL1        0.0285
     46 H           3.4017   -3.3093    1.2105 H       1  UNL1        0.0285
     47 H           1.7468   -4.8864    2.0706 H       1  UNL1        0.0444
     48 H           2.6176   -6.2533    1.3285 H       1  UNL1        0.0444
     49 H           0.0575   -2.5902    2.1126 H       1  UNL1        0.0637
     50 H           0.0405   -0.1279    2.1125 H       1  UNL1        0.0621
@<TRIPOS>BOND
     1     1     2    1
     2     1    30    1
     3     1    31    1
     4     1    32    1
     5     2    29   ar
     6     2     3   ar
     7     3     4   ar
     8     3    33    1
     9     4     5   ar
    10     4    34    1
    11     5     6    1
    12     5    28   ar
    13     6     7    2
    14     6     8    2
    15     6     9    1
    16     9    27    1
    17     9    10    1
    18    10    11    1
    19    10    35    1
    20    10    36    1
    21    11    12    1
    22    11    37    1
    23    11    38    1
    24    12    13    1
    25    12    26    1
    26    12    39    1
    27    13    14    2
    28    13    15   am
    29    15    16    1
    30    15    40    1
    31    16    25   ar
    32    16    17   ar
    33    17    18   ar
    34    17    41    1
    35    18    19   ar
    36    18    42    1
    37    19    20    1
    38    19    24   ar
    39    20    21    1
    40    20    22    1
    41    20    23    1
    42    24    25   ar
    43    24    43    1
    44    25    44    1
    45    26    27    1
    46    26    45    1
    47    26    46    1
    48    27    47    1
    49    27    48    1
    50    28    29   ar
    51    28    49    1
    52    29    50    1
