@<TRIPOS>MOLECULE
ZINC000408614020
 67 69 0 0 0
SMALL
GASTEIGER

@<TRIPOS>ATOM
      1 C          -9.0495   -6.0385    4.2296 C.3     1  UNL1        0.0790
      2 O          -9.2701   -4.7516    3.6487 O.3     1  UNL1       -0.4915
      3 C          -8.3119   -4.2824    2.8054 C.ar    1  UNL1        0.1616
      4 C          -7.1875   -5.0463    2.5386 C.ar    1  UNL1       -0.0145
      5 C          -6.2144   -4.5679    1.6805 C.ar    1  UNL1       -0.0317
      6 C          -6.3603   -3.3279    1.0877 C.ar    1  UNL1        0.1092
      7 S          -5.1164   -2.7238   -0.0043 S.O2    1  UNL1        0.0617
      8 O          -5.1509   -1.3065    0.0931 O.2     1  UNL1       -0.1528
      9 O          -3.9491   -3.4923    0.2526 O.2     1  UNL1       -0.1528
     10 N          -5.5931   -3.0984   -1.5454 N.3     1  UNL1       -0.1635
     11 C          -5.3007   -4.4219   -2.1012 C.3     1  UNL1        0.0971
     12 C          -6.4898   -5.3255   -1.8990 C.2     1  UNL1        0.2290
     13 O          -7.4835   -4.9052   -1.3451 O.2     1  UNL1       -0.2743
     14 N          -6.4488   -6.6006   -2.3336 N.am    1  UNL1       -0.3116
     15 C          -7.6047   -7.4789   -2.1370 C.3     1  UNL1        0.0206
     16 H          -8.5224   -6.8981   -2.2300 H       1  UNL1        0.0495
     17 C          -7.5372   -8.1063   -0.7432 C.3     1  UNL1       -0.0466
     18 C          -7.5912   -8.5841   -3.1950 C.3     1  UNL1       -0.0308
     19 C          -7.7839   -7.9656   -4.5811 C.3     1  UNL1       -0.0260
     20 C          -7.7706   -9.0542   -5.6232 C.ar    1  UNL1       -0.0473
     21 C          -6.5779   -9.4366   -6.2080 C.ar    1  UNL1       -0.0586
     22 C          -6.5657  -10.4351   -7.1639 C.ar    1  UNL1       -0.0615
     23 C          -7.7462  -11.0515   -7.5346 C.ar    1  UNL1       -0.0617
     24 C          -8.9388  -10.6697   -6.9491 C.ar    1  UNL1       -0.0615
     25 C          -8.9504   -9.6742   -5.9901 C.ar    1  UNL1       -0.0586
     26 C          -6.3071   -2.1062   -2.3528 C.3     1  UNL1        0.0460
     27 C          -5.3272   -1.3791   -3.2373 C.ar    1  UNL1       -0.0317
     28 C          -4.7917   -0.1718   -2.8293 C.ar    1  UNL1       -0.0573
     29 C          -3.8929    0.4951   -3.6406 C.ar    1  UNL1       -0.0615
     30 C          -3.5292   -0.0456   -4.8598 C.ar    1  UNL1       -0.0617
     31 C          -4.0640   -1.2534   -5.2674 C.ar    1  UNL1       -0.0615
     32 C          -4.9595   -1.9223   -4.4541 C.ar    1  UNL1       -0.0573
     33 C          -7.4805   -2.5605    1.3494 C.ar    1  UNL1        0.0101
     34 C          -8.4616   -3.0361    2.2039 C.ar    1  UNL1        0.1633
     35 O          -9.5639   -2.2827    2.4624 O.3     1  UNL1       -0.4914
     36 C          -9.6453   -1.0097    1.8181 C.3     1  UNL1        0.0790
     37 H          -9.8869   -6.2920    4.8796 H       1  UNL1        0.0660
     38 H          -8.9644   -6.7841    3.4391 H       1  UNL1        0.0660
     39 H          -8.1290   -6.0208    4.8130 H       1  UNL1        0.0660
     40 H          -7.0708   -6.0152    3.0010 H       1  UNL1        0.0656
     41 H          -5.3382   -5.1644    1.4733 H       1  UNL1        0.0638
     42 H          -5.0912   -4.3302   -3.1669 H       1  UNL1        0.0539
     43 H          -4.4328   -4.8448   -1.5953 H       1  UNL1        0.0539
     44 H          -5.6540   -6.9367   -2.7766 H       1  UNL1        0.1490
     45 H          -7.5469   -7.3190    0.0105 H       1  UNL1        0.0247
     46 H          -8.3972   -8.7599   -0.5970 H       1  UNL1        0.0247
     47 H          -6.6196   -8.6871   -0.6503 H       1  UNL1        0.0247
     48 H          -6.6361   -9.1083   -3.1607 H       1  UNL1        0.0286
     49 H          -8.3993   -9.2879   -2.9956 H       1  UNL1        0.0286
     50 H          -8.7390   -7.4414   -4.6154 H       1  UNL1        0.0314
     51 H          -6.9758   -7.2618   -4.7805 H       1  UNL1        0.0314
     52 H          -5.6556   -8.9550   -5.9184 H       1  UNL1        0.0620
     53 H          -5.6339  -10.7334   -7.6214 H       1  UNL1        0.0618
     54 H          -7.7367  -11.8311   -8.2819 H       1  UNL1        0.0618
     55 H          -9.8611  -11.1511   -7.2389 H       1  UNL1        0.0618
     56 H          -9.8821   -9.3759   -5.5326 H       1  UNL1        0.0620
     57 H          -7.0513   -2.6083   -2.9710 H       1  UNL1        0.0493
     58 H          -6.8028   -1.3917   -1.6957 H       1  UNL1        0.0493
     59 H          -5.0759    0.2506   -1.8768 H       1  UNL1        0.0621
     60 H          -3.4751    1.4387   -3.3222 H       1  UNL1        0.0618
     61 H          -2.8275    0.4758   -5.4940 H       1  UNL1        0.0618
     62 H          -3.7801   -1.6756   -6.2200 H       1  UNL1        0.0618
     63 H          -5.3773   -2.8660   -4.7726 H       1  UNL1        0.0621
     64 H          -7.5921   -1.5919    0.8849 H       1  UNL1        0.0675
     65 H          -9.6320   -1.1481    0.7370 H       1  UNL1        0.0660
     66 H         -10.5710   -0.5135    2.1096 H       1  UNL1        0.0660
     67 H          -8.7949   -0.3965    2.1164 H       1  UNL1        0.0660
@<TRIPOS>BOND
     1     1     2    1
     2     1    37    1
     3     1    38    1
     4     1    39    1
     5     2     3    1
     6     3    34   ar
     7     3     4   ar
     8     4     5   ar
     9     4    40    1
    10     5     6   ar
    11     5    41    1
    12     6     7    1
    13     6    33   ar
    14     7     8    2
    15     7     9    2
    16     7    10    1
    17    10    11    1
    18    10    26    1
    19    11    12    1
    20    11    42    1
    21    11    43    1
    22    12    13    2
    23    12    14   am
    24    14    15    1
    25    14    44    1
    26    15    16    1
    27    15    17    1
    28    15    18    1
    29    17    45    1
    30    17    46    1
    31    17    47    1
    32    18    19    1
    33    18    48    1
    34    18    49    1
    35    19    20    1
    36    19    50    1
    37    19    51    1
    38    20    25   ar
    39    20    21   ar
    40    21    22   ar
    41    21    52    1
    42    22    23   ar
    43    22    53    1
    44    23    24   ar
    45    23    54    1
    46    24    25   ar
    47    24    55    1
    48    25    56    1
    49    26    27    1
    50    26    57    1
    51    26    58    1
    52    27    32   ar
    53    27    28   ar
    54    28    29   ar
    55    28    59    1
    56    29    30   ar
    57    29    60    1
    58    30    31   ar
    59    30    61    1
    60    31    32   ar
    61    31    62    1
    62    32    63    1
    63    33    34   ar
    64    33    64    1
    65    34    35    1
    66    35    36    1
    67    36    65    1
    68    36    66    1
    69    36    67    1
