@<TRIPOS>MOLECULE
ZINC000219751383
 44 46 0 0 0
SMALL
GASTEIGER

@<TRIPOS>ATOM
      1 O           0.0315    0.0063   -0.3235 O.2     1  UNL1       -0.2737
      2 C          -0.0024    1.2076   -0.1604 C.2     1  UNL1        0.2361
      3 N           1.1435    1.8984    0.0013 N.am    1  UNL1       -0.2842
      4 C           2.3633    1.2187    0.0917 C.ar    1  UNL1        0.0335
      5 C           3.5210    1.7969   -0.4122 C.ar    1  UNL1       -0.0399
      6 C           4.7234    1.1235   -0.3215 C.ar    1  UNL1       -0.0484
      7 C           4.7751   -0.1255    0.2698 C.ar    1  UNL1        0.0549
      8 C           6.0887   -0.8577    0.3666 C.3     1  UNL1        0.4174
      9 F           6.7231   -0.5207    1.5670 F       1  UNL1       -0.1659
     10 F           5.8574   -2.2370    0.3326 F       1  UNL1       -0.1659
     11 F           6.9052   -0.4951   -0.7101 F       1  UNL1       -0.1659
     12 C           3.6242   -0.7038    0.7728 C.ar    1  UNL1       -0.0484
     13 C           2.4197   -0.0330    0.6904 C.ar    1  UNL1       -0.0399
     14 C          -1.3255    1.9289   -0.1446 C.3     1  UNL1        0.1081
     15 H          -1.3475    2.6801   -0.9341 H       1  UNL1        0.0576
     16 C          -1.5398    2.6026    1.2271 C.3     1  UNL1       -0.0260
     17 C          -3.0553    2.3925    1.4846 C.3     1  UNL1       -0.0366
     18 C          -3.2861    0.9942    0.8592 C.3     1  UNL1        0.0214
     19 N          -2.4212    0.9678   -0.3384 N.3     1  UNL1       -0.1647
     20 S          -2.6487    0.0133   -1.6723 S.O2    1  UNL1        0.0615
     21 O          -1.3771   -0.1189   -2.2927 O.2     1  UNL1       -0.1528
     22 O          -3.4234   -1.0980   -1.2432 O.2     1  UNL1       -0.1528
     23 C          -3.6587    0.9197   -2.7961 C.ar    1  UNL1        0.1056
     24 C          -5.0353    0.8104   -2.7303 C.ar    1  UNL1       -0.0340
     25 C          -5.8281    1.5212   -3.6116 C.ar    1  UNL1       -0.0415
     26 C          -5.2439    2.3421   -4.5597 C.ar    1  UNL1        0.0411
     27 CL         -6.2390    3.2355   -5.6665 Cl      1  UNL1       -0.0835
     28 C          -3.8662    2.4510   -4.6250 C.ar    1  UNL1       -0.0415
     29 C          -3.0746    1.7442   -3.7396 C.ar    1  UNL1       -0.0340
     30 H           1.1227    2.8667    0.0551 H       1  UNL1        0.1549
     31 H           3.4811    2.7721   -0.8747 H       1  UNL1        0.0636
     32 H           5.6241    1.5726   -0.7131 H       1  UNL1        0.0624
     33 H           3.6679   -1.6794    1.2340 H       1  UNL1        0.0624
     34 H           1.5211   -0.4852    1.0835 H       1  UNL1        0.0636
     35 H          -0.9458    2.1089    1.9962 H       1  UNL1        0.0286
     36 H          -1.3008    3.6649    1.1765 H       1  UNL1        0.0286
     37 H          -3.2726    2.3835    2.5527 H       1  UNL1        0.0279
     38 H          -3.6474    3.1517    0.9735 H       1  UNL1        0.0279
     39 H          -2.9911    0.2123    1.5590 H       1  UNL1        0.0444
     40 H          -4.3311    0.8742    0.5734 H       1  UNL1        0.0444
     41 H          -5.4912    0.1693   -1.9904 H       1  UNL1        0.0637
     42 H          -6.9035    1.4355   -3.5603 H       1  UNL1        0.0633
     43 H          -3.4095    3.0914   -5.3651 H       1  UNL1        0.0633
     44 H          -1.9991    1.8294   -3.7902 H       1  UNL1        0.0637
@<TRIPOS>BOND
     1     1     2    2
     2     2     3   am
     3     2    14    1
     4     3     4    1
     5     3    30    1
     6     4    13   ar
     7     4     5   ar
     8     5     6   ar
     9     5    31    1
    10     6     7   ar
    11     6    32    1
    12     7     8    1
    13     7    12   ar
    14     8     9    1
    15     8    10    1
    16     8    11    1
    17    12    13   ar
    18    12    33    1
    19    13    34    1
    20    14    15    1
    21    14    19    1
    22    14    16    1
    23    16    17    1
    24    16    35    1
    25    16    36    1
    26    17    18    1
    27    17    37    1
    28    17    38    1
    29    18    19    1
    30    18    39    1
    31    18    40    1
    32    20    19    1
    33    20    21    2
    34    20    22    2
    35    20    23    1
    36    23    29   ar
    37    23    24   ar
    38    24    25   ar
    39    24    41    1
    40    25    26   ar
    41    25    42    1
    42    26    27    1
    43    26    28   ar
    44    28    29   ar
    45    28    43    1
    46    29    44    1
