@<TRIPOS>MOLECULE
ZINC000046120921
 44 45 0 0 0
SMALL
GASTEIGER

@<TRIPOS>ATOM
      1 N          -0.0204    1.6518    0.0111 N.3     1  UNL1       -0.2035
      2 S           0.0021   -0.0041    0.0020 S.O2    1  UNL1        0.0559
      3 O           1.3604   -0.3860   -0.1664 O.2     1  UNL1       -0.1533
      4 O          -0.7920   -0.4222    1.1038 O.2     1  UNL1       -0.1533
      5 C          -0.8462   -0.5292   -1.4503 C.ar    1  UNL1        0.1050
      6 C          -2.2107   -0.7471   -1.4131 C.ar    1  UNL1       -0.0351
      7 C          -2.8762   -1.1591   -2.5525 C.ar    1  UNL1       -0.0567
      8 C          -2.1772   -1.3528   -3.7293 C.ar    1  UNL1       -0.0458
      9 C          -2.9026   -1.8024   -4.9713 C.3     1  UNL1       -0.0121
     10 C          -3.3788   -0.5778   -5.7553 C.3     1  UNL1        0.0156
     11 N          -4.0840   -1.0149   -6.9627 N.am    1  UNL1       -0.3150
     12 C          -4.5951   -0.1020   -7.8124 C.2     1  UNL1        0.2131
     13 O          -4.4712    1.0814   -7.5773 O.2     1  UNL1       -0.2758
     14 C          -5.3205   -0.5516   -9.0544 C.3     1  UNL1        0.0263
     15 C          -5.7967    0.6729   -9.8384 C.3     1  UNL1       -0.0184
     16 C          -6.5332    0.2165  -11.0994 C.3     1  UNL1        0.0592
     17 H          -5.8978   -0.4562  -11.6755 H       1  UNL1        0.0596
     18 C          -6.9117    1.4426  -11.9576 C.3     1  UNL1       -0.0245
     19 C          -8.3262    1.0605  -12.4726 C.3     1  UNL1       -0.0271
     20 C          -8.8767    0.2687  -11.2598 C.3     1  UNL1        0.0481
     21 O          -7.7471   -0.4525  -10.7378 O.3     1  UNL1       -0.3765
     22 C          -0.8129   -1.1336   -3.7669 C.ar    1  UNL1       -0.0567
     23 C          -0.1480   -0.7179   -2.6284 C.ar    1  UNL1       -0.0351
     24 H           0.8130    2.1481    0.0058 H       1  UNL1        0.1442
     25 H          -0.8669    2.1253    0.0177 H       1  UNL1        0.1442
     26 H          -2.7569   -0.5958   -0.4937 H       1  UNL1        0.0637
     27 H          -3.9422   -1.3300   -2.5233 H       1  UNL1        0.0621
     28 H          -2.2283   -2.3919   -5.5926 H       1  UNL1        0.0328
     29 H          -3.7623   -2.4105   -4.6899 H       1  UNL1        0.0328
     30 H          -4.0531    0.0117   -5.1340 H       1  UNL1        0.0465
     31 H          -2.5191    0.0303   -6.0367 H       1  UNL1        0.0465
     32 H          -4.1831   -1.9613   -7.1507 H       1  UNL1        0.1487
     33 H          -4.6462   -1.1411   -9.6757 H       1  UNL1        0.0359
     34 H          -6.1802   -1.1597   -8.7730 H       1  UNL1        0.0359
     35 H          -6.4710    1.2624   -9.2171 H       1  UNL1        0.0295
     36 H          -4.9370    1.2811  -10.1198 H       1  UNL1        0.0295
     37 H          -6.9515    2.3454  -11.3481 H       1  UNL1        0.0291
     38 H          -6.2163    1.5644  -12.7881 H       1  UNL1        0.0291
     39 H          -8.9268    1.9491  -12.6669 H       1  UNL1        0.0288
     40 H          -8.2643    0.4289  -13.3587 H       1  UNL1        0.0288
     41 H          -9.2697    0.9532  -10.5080 H       1  UNL1        0.0560
     42 H          -9.6521   -0.4262  -11.5821 H       1  UNL1        0.0560
     43 H          -0.2668   -1.2845   -4.6863 H       1  UNL1        0.0621
     44 H           0.9179   -0.5466   -2.6578 H       1  UNL1        0.0637
@<TRIPOS>BOND
     1     2     1    1
     2     1    24    1
     3     1    25    1
     4     2     3    2
     5     2     4    2
     6     2     5    1
     7     5    23   ar
     8     5     6   ar
     9     6     7   ar
    10     6    26    1
    11     7     8   ar
    12     7    27    1
    13     8     9    1
    14     8    22   ar
    15     9    10    1
    16     9    28    1
    17     9    29    1
    18    10    11    1
    19    10    30    1
    20    10    31    1
    21    11    12   am
    22    11    32    1
    23    12    13    2
    24    12    14    1
    25    14    15    1
    26    14    33    1
    27    14    34    1
    28    15    16    1
    29    15    35    1
    30    15    36    1
    31    16    17    1
    32    16    21    1
    33    16    18    1
    34    18    19    1
    35    18    37    1
    36    18    38    1
    37    19    20    1
    38    19    39    1
    39    19    40    1
    40    20    21    1
    41    20    41    1
    42    20    42    1
    43    22    23   ar
    44    22    43    1
    45    23    44    1
