@<TRIPOS>MOLECULE
ZINC000154173690
 38 40 0 0 0
SMALL
GASTEIGER

@<TRIPOS>ATOM
      1 O          -0.2468    0.1925    0.1428 O.2     1  UNL1       -0.2737
      2 C          -0.1007    1.3941    0.0679 C.2     1  UNL1        0.2364
      3 N          -1.1873    2.1676    0.0549 N.am    1  UNL1       -0.3124
      4 C          -1.1711    3.6132   -0.1214 C.3     1  UNL1        0.0261
      5 C           0.1975    4.1895    0.2466 C.3     1  UNL1        0.0369
      6 N           1.2326    3.3606   -0.3940 N.3     1  UNL1       -0.1631
      7 S           2.2805    3.9981   -1.5065 S.O2    1  UNL1        0.0357
      8 O           2.6568    2.8881   -2.3099 O.2     1  UNL1       -0.1577
      9 O           1.5744    5.0989   -2.0624 O.2     1  UNL1       -0.1577
     10 C           3.6892    4.5775   -0.5214 C.3     1  UNL1        0.0931
     11 C           5.0150    3.8297   -0.6766 C.3     1  UNL1       -0.0274
     12 C           4.8531    5.2310   -1.2692 C.3     1  UNL1       -0.0274
     13 C           1.2979    1.9441    0.0001 C.3     1  UNL1        0.1323
     14 H           1.8689    1.3849   -0.7411 H       1  UNL1        0.0626
     15 C           1.9651    1.8250    1.3461 C.ar    1  UNL1       -0.0199
     16 C           3.1699    1.1574    1.4636 C.ar    1  UNL1       -0.0560
     17 C           3.7819    1.0481    2.6983 C.ar    1  UNL1       -0.0498
     18 C           3.1894    1.6068    3.8153 C.ar    1  UNL1        0.0548
     19 C           3.8564    1.4872    5.1614 C.3     1  UNL1        0.4174
     20 F           4.7102    2.5780    5.3573 F       1  UNL1       -0.1659
     21 F           2.8818    1.4716    6.1650 F       1  UNL1       -0.1659
     22 F           4.5963    0.3009    5.2115 F       1  UNL1       -0.1659
     23 C           1.9853    2.2755    3.6975 C.ar    1  UNL1       -0.0498
     24 C           1.3752    2.3881    2.4622 C.ar    1  UNL1       -0.0560
     25 H          -2.0487    1.7370    0.1706 H       1  UNL1        0.1488
     26 H          -1.3921    3.8502   -1.1621 H       1  UNL1        0.0475
     27 H          -1.9325    4.0611    0.5172 H       1  UNL1        0.0475
     28 H           0.2733    5.2156   -0.1131 H       1  UNL1        0.0459
     29 H           0.3267    4.1680    1.3287 H       1  UNL1        0.0459
     30 H           3.4435    4.9672    0.4665 H       1  UNL1        0.0552
     31 H           5.6417    3.7273    0.2093 H       1  UNL1        0.0285
     32 H           5.0407    2.9897   -1.3706 H       1  UNL1        0.0285
     33 H           4.7724    5.3128   -2.3531 H       1  UNL1        0.0285
     34 H           5.3733    6.0504   -0.7731 H       1  UNL1        0.0285
     35 H           3.6328    0.7210    0.5909 H       1  UNL1        0.0621
     36 H           4.7229    0.5260    2.7903 H       1  UNL1        0.0623
     37 H           1.5226    2.7122    4.5702 H       1  UNL1        0.0623
     38 H           0.4345    2.9105    2.3702 H       1  UNL1        0.0621
@<TRIPOS>BOND
     1     1     2    2
     2     2    13    1
     3     2     3   am
     4     3     4    1
     5     3    25    1
     6     4     5    1
     7     4    26    1
     8     4    27    1
     9     5     6    1
    10     5    28    1
    11     5    29    1
    12     7     6    1
    13     6    13    1
    14     7     8    2
    15     7     9    2
    16     7    10    1
    17    10    12    1
    18    10    11    1
    19    10    30    1
    20    11    12    1
    21    11    31    1
    22    11    32    1
    23    12    33    1
    24    12    34    1
    25    13    14    1
    26    13    15    1
    27    15    24   ar
    28    15    16   ar
    29    16    17   ar
    30    16    35    1
    31    17    18   ar
    32    17    36    1
    33    18    19    1
    34    18    23   ar
    35    19    20    1
    36    19    21    1
    37    19    22    1
    38    23    24   ar
    39    23    37    1
    40    24    38    1
