@<TRIPOS>MOLECULE
ZINC000026765278
 49 50 0 0 0
SMALL
GASTEIGER

@<TRIPOS>ATOM
      1 C          -0.0730    1.5500    0.0320 C.3     1  UNL1       -0.0507
      2 C          -0.0609    0.0200    0.0295 C.3     1  UNL1        0.0177
      3 N           0.6261   -0.4609   -1.1717 N.3     1  UNL1       -0.1771
      4 C           2.0855   -0.5894   -1.1789 C.3     1  UNL1        0.0177
      5 C           2.4811   -1.9442   -0.5883 C.3     1  UNL1       -0.0507
      6 S          -0.2468   -0.8594   -2.5214 S.O2    1  UNL1        0.0608
      7 O           0.5547   -1.7681   -3.2638 O.2     1  UNL1       -0.1528
      8 O          -1.5596   -1.1678   -2.0735 O.2     1  UNL1       -0.1528
      9 C          -0.3852    0.5979   -3.5021 C.ar    1  UNL1        0.1055
     10 C          -1.4491    1.4599   -3.3128 C.ar    1  UNL1       -0.0351
     11 C          -1.5576    2.6032   -4.0822 C.ar    1  UNL1       -0.0567
     12 C          -0.6020    2.8847   -5.0405 C.ar    1  UNL1       -0.0468
     13 C          -0.7207    4.1309   -5.8797 C.3     1  UNL1       -0.0194
     14 C           0.0052    5.2846   -5.1848 C.3     1  UNL1        0.0282
     15 C          -0.1134    6.5308   -6.0239 C.2     1  UNL1        0.2175
     16 O          -0.7189    6.4992   -7.0743 O.2     1  UNL1       -0.2755
     17 N           0.4534    7.6803   -5.6071 N.am    1  UNL1       -0.2846
     18 C           0.4246    8.8129   -6.4289 C.ar    1  UNL1        0.0475
     19 C          -0.6742    9.0546   -7.2421 C.ar    1  UNL1       -0.0394
     20 C          -0.6999   10.1737   -8.0518 C.ar    1  UNL1       -0.0599
     21 C           0.3673   11.0527   -8.0534 C.ar    1  UNL1       -0.0606
     22 C           1.4641   10.8151   -7.2450 C.ar    1  UNL1       -0.0460
     23 C           1.4935    9.7011   -6.4283 C.ar    1  UNL1        0.0390
     24 BR          2.9933    9.3767   -5.3232 Br      1  UNL1       -0.0484
     25 C           0.4626    2.0234   -5.2289 C.ar    1  UNL1       -0.0567
     26 C           0.5732    0.8821   -4.4569 C.ar    1  UNL1       -0.0351
     27 H           0.9518    1.9214    0.0264 H       1  UNL1        0.0243
     28 H          -0.5951    1.9107   -0.8542 H       1  UNL1        0.0243
     29 H          -0.5842    1.9078    0.9257 H       1  UNL1        0.0243
     30 H           0.4612   -0.3407    0.9157 H       1  UNL1        0.0441
     31 H          -1.0857   -0.3514    0.0351 H       1  UNL1        0.0441
     32 H           2.4514   -0.5187   -2.2032 H       1  UNL1        0.0441
     33 H           2.5235    0.2096   -0.5807 H       1  UNL1        0.0441
     34 H           2.0431   -2.7432   -1.1865 H       1  UNL1        0.0243
     35 H           3.5669   -2.0398   -0.5937 H       1  UNL1        0.0243
     36 H           2.1152   -2.0149    0.4360 H       1  UNL1        0.0243
     37 H          -2.1957    1.2400   -2.5640 H       1  UNL1        0.0637
     38 H          -2.3893    3.2764   -3.9348 H       1  UNL1        0.0621
     39 H          -0.2713    3.9549   -6.8570 H       1  UNL1        0.0318
     40 H          -1.7730    4.3862   -6.0043 H       1  UNL1        0.0318
     41 H          -0.4442    5.4606   -4.2074 H       1  UNL1        0.0362
     42 H           1.0576    5.0293   -5.0602 H       1  UNL1        0.0362
     43 H           0.8813    7.7227   -4.7376 H       1  UNL1        0.1548
     44 H          -1.5080    8.3683   -7.2420 H       1  UNL1        0.0636
     45 H          -1.5546   10.3620   -8.6845 H       1  UNL1        0.0618
     46 H           0.3447   11.9265   -8.6877 H       1  UNL1        0.0618
     47 H           2.2963   11.5034   -7.2489 H       1  UNL1        0.0629
     48 H           1.2094    2.2435   -5.9774 H       1  UNL1        0.0621
     49 H           1.4050    0.2091   -4.6040 H       1  UNL1        0.0637
@<TRIPOS>BOND
     1     1     2    1
     2     1    27    1
     3     1    28    1
     4     1    29    1
     5     2     3    1
     6     2    30    1
     7     2    31    1
     8     3     4    1
     9     6     3    1
    10     4     5    1
    11     4    32    1
    12     4    33    1
    13     5    34    1
    14     5    35    1
    15     5    36    1
    16     6     7    2
    17     6     8    2
    18     6     9    1
    19     9    26   ar
    20     9    10   ar
    21    10    11   ar
    22    10    37    1
    23    11    12   ar
    24    11    38    1
    25    12    13    1
    26    12    25   ar
    27    13    14    1
    28    13    39    1
    29    13    40    1
    30    14    15    1
    31    14    41    1
    32    14    42    1
    33    15    16    2
    34    15    17   am
    35    17    18    1
    36    17    43    1
    37    18    23   ar
    38    18    19   ar
    39    19    20   ar
    40    19    44    1
    41    20    21   ar
    42    20    45    1
    43    21    22   ar
    44    21    46    1
    45    22    23   ar
    46    22    47    1
    47    23    24    1
    48    25    26   ar
    49    25    48    1
    50    26    49    1
