@<TRIPOS>MOLECULE
ZINC000004985930
 47 49 0 0 0
SMALL
GASTEIGER

@<TRIPOS>ATOM
      1 C           0.1250    1.5013    0.0288 C.3     1  UNL1       -0.0312
      2 C          -0.0093   -0.0226    0.0060 C.3     1  UNL1        0.0978
      3 H          -1.0623   -0.2990    0.0599 H       1  UNL1        0.0685
      4 N           0.5787   -0.5526   -1.2319 N.am    1  UNL1       -0.2673
      5 C           0.0172   -0.5551   -2.4571 C.2     1  UNL1        0.3062
      6 O           0.6338   -0.9968   -3.4075 O.2     1  UNL1       -0.2524
      7 N          -1.2276   -0.0681   -2.6289 N.am    1  UNL1       -0.2811
      8 C          -1.9172    0.6482   -1.5441 C.3     1  UNL1        0.0396
      9 C          -2.4490    1.9736   -2.1015 C.3     1  UNL1        0.0635
     10 O          -3.2164    1.7147   -3.2795 O.3     1  UNL1       -0.3767
     11 C          -2.4680    1.1320   -4.3492 C.3     1  UNL1        0.0635
     12 C          -1.9350   -0.2315   -3.9089 C.3     1  UNL1        0.0396
     13 C           1.9065   -1.0816   -0.8656 C.3     1  UNL1        0.0321
     14 C           1.7534   -1.4901    0.6129 C.3     1  UNL1        0.0384
     15 N           0.7124   -0.5996    1.1471 N.3     1  UNL1       -0.1549
     16 S           0.4064   -0.3016    2.7471 S.O2    1  UNL1        0.0625
     17 O          -0.9458    0.1283    2.8238 O.2     1  UNL1       -0.1528
     18 O           0.9087   -1.4192    3.4667 O.2     1  UNL1       -0.1528
     19 C           1.3947    1.0788    3.2188 C.ar    1  UNL1        0.1061
     20 C           2.6725    0.8794    3.7063 C.ar    1  UNL1       -0.0353
     21 C           3.4480    1.9625    4.0764 C.ar    1  UNL1       -0.0594
     22 C           2.9456    3.2447    3.9584 C.ar    1  UNL1       -0.0500
     23 C           1.6678    3.4442    3.4699 C.ar    1  UNL1        0.0567
     24 C           1.1198    4.8422    3.3416 C.3     1  UNL1        0.4175
     25 F           2.0811    5.7615    3.7754 F       1  UNL1       -0.1659
     26 F           0.8010    5.0972    2.0035 F       1  UNL1       -0.1659
     27 F          -0.0314    4.9657    4.1270 F       1  UNL1       -0.1659
     28 C           0.8941    2.3617    3.0958 C.ar    1  UNL1       -0.0237
     29 H           1.1677    1.7717    0.1956 H       1  UNL1        0.0261
     30 H          -0.2081    1.9097   -0.9254 H       1  UNL1        0.0261
     31 H          -0.4889    1.9082    0.8323 H       1  UNL1        0.0261
     32 H          -2.7473    0.0454   -1.1758 H       1  UNL1        0.0488
     33 H          -1.2176    0.8459   -0.7320 H       1  UNL1        0.0488
     34 H          -3.0799    2.4556   -1.3546 H       1  UNL1        0.0575
     35 H          -1.6120    2.6267   -2.3484 H       1  UNL1        0.0575
     36 H          -3.1126    1.0086   -5.2195 H       1  UNL1        0.0575
     37 H          -1.6311    1.7821   -4.6044 H       1  UNL1        0.0575
     38 H          -1.2490   -0.6183   -4.6624 H       1  UNL1        0.0488
     39 H          -2.7654   -0.9251   -3.7771 H       1  UNL1        0.0488
     40 H           2.1540   -1.9490   -1.4776 H       1  UNL1        0.0479
     41 H           2.6678   -0.3088   -0.9713 H       1  UNL1        0.0479
     42 H           1.4379   -2.5308    0.6877 H       1  UNL1        0.0460
     43 H           2.6916   -1.3387    1.1468 H       1  UNL1        0.0460
     44 H           3.0651   -0.1225    3.7986 H       1  UNL1        0.0637
     45 H           4.4463    1.8067    4.4581 H       1  UNL1        0.0618
     46 H           3.5512    4.0907    4.2482 H       1  UNL1        0.0623
     47 H          -0.1041    2.5175    2.7142 H       1  UNL1        0.0642
@<TRIPOS>BOND
     1     1     2    1
     2     1    29    1
     3     1    30    1
     4     1    31    1
     5     2     3    1
     6     2    15    1
     7     2     4    1
     8     4     5   am
     9     4    13    1
    10     5     6    2
    11     5     7   am
    12     7    12    1
    13     7     8    1
    14     8     9    1
    15     8    32    1
    16     8    33    1
    17     9    10    1
    18     9    34    1
    19     9    35    1
    20    10    11    1
    21    11    12    1
    22    11    36    1
    23    11    37    1
    24    12    38    1
    25    12    39    1
    26    13    14    1
    27    13    40    1
    28    13    41    1
    29    14    15    1
    30    14    42    1
    31    14    43    1
    32    16    15    1
    33    16    17    2
    34    16    18    2
    35    16    19    1
    36    19    28   ar
    37    19    20   ar
    38    20    21   ar
    39    20    44    1
    40    21    22   ar
    41    21    45    1
    42    22    23   ar
    43    22    46    1
    44    23    24    1
    45    23    28   ar
    46    24    25    1
    47    24    26    1
    48    24    27    1
    49    28    47    1
