@<TRIPOS>MOLECULE
ZINC000028427933
 60 62 0 0 0
SMALL
GASTEIGER

@<TRIPOS>ATOM
      1 C           0.3116    1.4901    0.1586 C.3     1  UNL1       -0.0517
      2 C          -0.0122    0.0035   -0.0032 C.3     1  UNL1        0.0388
      3 C           0.4380   -0.7555    1.2467 C.3     1  UNL1       -0.0517
      4 C          -1.5204   -0.1725   -0.1912 C.3     1  UNL1       -0.0517
      5 C           0.7110   -0.5398   -1.2085 C.2     1  UNL1        0.2216
      6 O           1.2649    0.2184   -1.9761 O.2     1  UNL1       -0.2750
      7 N           0.7423   -1.8683   -1.4335 N.am    1  UNL1       -0.2895
      8 C           0.0353   -2.8908   -0.6410 C.3     1  UNL1        0.0155
      9 C          -0.1330   -4.0925   -1.6040 C.3     1  UNL1       -0.0350
     10 C           1.2031   -4.0500   -2.3916 C.3     1  UNL1       -0.0243
     11 C           1.4820   -2.5372   -2.5137 C.3     1  UNL1        0.1024
     12 H           1.1407   -2.1745   -3.4833 H       1  UNL1        0.0597
     13 C           2.9577   -2.2740   -2.3587 C.2     1  UNL1        0.2362
     14 O           3.3577   -1.5822   -1.4463 O.2     1  UNL1       -0.2736
     15 N           3.8330   -2.8072   -3.2339 N.am    1  UNL1       -0.2974
     16 C           3.3621   -3.6424   -4.3478 C.3     1  UNL1        0.0292
     17 C           3.8911   -3.0519   -5.6607 C.3     1  UNL1        0.0363
     18 N           5.3334   -2.8083   -5.5186 N.3     1  UNL1       -0.1736
     19 S           6.4087   -3.4626   -6.5946 S.O2    1  UNL1        0.0609
     20 O           7.6583   -3.5316   -5.9215 O.2     1  UNL1       -0.1528
     21 O           5.7682   -4.5969   -7.1625 O.2     1  UNL1       -0.1528
     22 C           6.6115   -2.2991   -7.9022 C.ar    1  UNL1        0.1055
     23 C           5.7821   -2.3494   -9.0070 C.ar    1  UNL1       -0.0348
     24 C           5.9412   -1.4366  -10.0328 C.ar    1  UNL1       -0.0483
     25 C           6.9294   -0.4732   -9.9537 C.ar    1  UNL1        0.0549
     26 C           7.1031    0.5216  -11.0723 C.3     1  UNL1        0.4174
     27 F           6.3115    1.6476  -10.8221 F       1  UNL1       -0.1659
     28 F           8.4465    0.9042  -11.1516 F       1  UNL1       -0.1659
     29 F           6.7127   -0.0635  -12.2816 F       1  UNL1       -0.1659
     30 C           7.7579   -0.4221   -8.8483 C.ar    1  UNL1       -0.0483
     31 C           7.5963   -1.3325   -7.8207 C.ar    1  UNL1       -0.0348
     32 C           5.8043   -1.9732   -4.4047 C.3     1  UNL1        0.0363
     33 C           5.2748   -2.5590   -3.0951 C.3     1  UNL1        0.0292
     34 H           1.3860    1.6154    0.2926 H       1  UNL1        0.0239
     35 H          -0.0091    2.0308   -0.7318 H       1  UNL1        0.0239
     36 H          -0.2115    1.8830    1.0305 H       1  UNL1        0.0239
     37 H          -0.0851   -0.3625    2.1185 H       1  UNL1        0.0239
     38 H           0.2073   -1.8146    1.1314 H       1  UNL1        0.0239
     39 H           1.5124   -0.6301    1.3806 H       1  UNL1        0.0239
     40 H          -1.8628    0.4700   -1.0024 H       1  UNL1        0.0239
     41 H          -1.7372   -1.2124   -0.4351 H       1  UNL1        0.0239
     42 H          -2.0355    0.0997    0.7300 H       1  UNL1        0.0239
     43 H           0.6315   -3.1790    0.2247 H       1  UNL1        0.0465
     44 H          -0.9392   -2.5188   -0.3247 H       1  UNL1        0.0465
     45 H          -0.2306   -5.0262   -1.0502 H       1  UNL1        0.0281
     46 H          -0.9836   -3.9439   -2.2693 H       1  UNL1        0.0281
     47 H           1.9958   -4.5482   -1.8333 H       1  UNL1        0.0288
     48 H           1.0839   -4.4987   -3.3778 H       1  UNL1        0.0288
     49 H           3.7366   -4.6588   -4.2267 H       1  UNL1        0.0478
     50 H           2.2722   -3.6508   -4.3634 H       1  UNL1        0.0478
     51 H           3.7174   -3.7559   -6.4746 H       1  UNL1        0.0459
     52 H           3.3803   -2.1123   -5.8712 H       1  UNL1        0.0459
     53 H           5.0101   -3.1021   -9.0688 H       1  UNL1        0.0637
     54 H           5.2937   -1.4764  -10.8962 H       1  UNL1        0.0624
     55 H           8.5297    0.3308   -8.7863 H       1  UNL1        0.0624
     56 H           8.2436   -1.2925   -6.9571 H       1  UNL1        0.0637
     57 H           6.8941   -1.9647   -4.3892 H       1  UNL1        0.0459
     58 H           5.4298   -0.9567   -4.5258 H       1  UNL1        0.0459
     59 H           5.4491   -1.8542   -2.2821 H       1  UNL1        0.0478
     60 H           5.7837   -3.4993   -2.8827 H       1  UNL1        0.0478
@<TRIPOS>BOND
     1     1     2    1
     2     1    34    1
     3     1    35    1
     4     1    36    1
     5     2     3    1
     6     2     4    1
     7     2     5    1
     8     3    37    1
     9     3    38    1
    10     3    39    1
    11     4    40    1
    12     4    41    1
    13     4    42    1
    14     5     6    2
    15     5     7   am
    16     7    11    1
    17     7     8    1
    18     8     9    1
    19     8    43    1
    20     8    44    1
    21     9    10    1
    22     9    45    1
    23     9    46    1
    24    10    11    1
    25    10    47    1
    26    10    48    1
    27    11    12    1
    28    11    13    1
    29    13    14    2
    30    13    15   am
    31    15    33    1
    32    15    16    1
    33    16    17    1
    34    16    49    1
    35    16    50    1
    36    17    18    1
    37    17    51    1
    38    17    52    1
    39    19    18    1
    40    18    32    1
    41    19    20    2
    42    19    21    2
    43    19    22    1
    44    22    31   ar
    45    22    23   ar
    46    23    24   ar
    47    23    53    1
    48    24    25   ar
    49    24    54    1
    50    25    26    1
    51    25    30   ar
    52    26    27    1
    53    26    28    1
    54    26    29    1
    55    30    31   ar
    56    30    55    1
    57    31    56    1
    58    32    33    1
    59    32    57    1
    60    32    58    1
    61    33    59    1
    62    33    60    1
