@<TRIPOS>MOLECULE
ZINC000080819428
 39 40 0 0 0
SMALL
GASTEIGER

@<TRIPOS>ATOM
      1 C          -0.2196    0.8470   -1.5892 C.3     1  UNL1       -0.0415
      2 C          -0.3011   -0.6746   -1.4517 C.3     1  UNL1        0.0457
      3 O          -1.6412   -1.0528   -1.1305 O.3     1  UNL1       -0.3705
      4 C          -1.8272   -2.4615   -0.9792 C.3     1  UNL1        0.1039
      5 H          -0.9036   -2.9131   -0.6170 H       1  UNL1        0.0664
      6 C          -2.1991   -3.0749   -2.3306 C.3     1  UNL1       -0.0325
      7 C          -2.9339   -2.7186    0.0108 C.ar    1  UNL1        0.1070
      8 N          -2.8837   -3.5843    0.9663 N.ar    1  UNL1       -0.2447
      9 C          -3.9424   -3.6816    1.7450 C.ar    1  UNL1        0.0661
     10 C          -4.0202   -4.6489    2.8979 C.3     1  UNL1        0.0574
     11 N          -4.4626   -5.9571    2.4088 N.am    1  UNL1       -0.2935
     12 C          -3.4761   -6.9452    1.9654 C.3     1  UNL1        0.0039
     13 C          -5.7771   -6.2515    2.3667 C.2     1  UNL1        0.2665
     14 O          -6.5996   -5.3995    2.6394 O.2     1  UNL1       -0.2683
     15 C          -6.2194   -7.6137    1.9879 C.ar    1  UNL1        0.1435
     16 C          -7.5754   -7.8847    1.8116 C.ar    1  UNL1        0.0580
     17 N          -7.9650   -9.1010    1.4739 N.ar    1  UNL1       -0.2595
     18 C          -7.0713  -10.0589    1.3036 C.ar    1  UNL1        0.0457
     19 C          -5.7207   -9.7926    1.4788 C.ar    1  UNL1        0.0465
     20 N          -5.3232   -8.5806    1.8098 N.ar    1  UNL1       -0.2473
     21 C          -4.9411   -2.8518    1.4289 C.ar    1  UNL1        0.0003
     22 S          -4.4349   -1.9002    0.0350 S.2     1  UNL1       -0.0777
     23 H           0.8026    1.1355   -1.8341 H       1  UNL1        0.0252
     24 H          -0.8902    1.1766   -2.3828 H       1  UNL1        0.0252
     25 H          -0.5132    1.3131   -0.6486 H       1  UNL1        0.0252
     26 H          -0.0075   -1.1406   -2.3922 H       1  UNL1        0.0557
     27 H           0.3695   -1.0041   -0.6580 H       1  UNL1        0.0557
     28 H          -1.3986   -2.8890   -3.0466 H       1  UNL1        0.0258
     29 H          -2.3409   -4.1495   -2.2151 H       1  UNL1        0.0258
     30 H          -3.1226   -2.6234   -2.6928 H       1  UNL1        0.0258
     31 H          -3.0365   -4.7465    3.3574 H       1  UNL1        0.0529
     32 H          -4.7309   -4.2778    3.6363 H       1  UNL1        0.0529
     33 H          -3.2487   -7.6253    2.7863 H       1  UNL1        0.0429
     34 H          -3.8805   -7.5111    1.1262 H       1  UNL1        0.0429
     35 H          -2.5649   -6.4345    1.6538 H       1  UNL1        0.0429
     36 H          -8.3061   -7.1018    1.9512 H       1  UNL1        0.0853
     37 H          -7.3928  -11.0523    1.0275 H       1  UNL1        0.0845
     38 H          -4.9937  -10.5788    1.3388 H       1  UNL1        0.0845
     39 H          -5.8895   -2.7753    1.9399 H       1  UNL1        0.0712
@<TRIPOS>BOND
     1     1     2    1
     2     1    23    1
     3     1    24    1
     4     1    25    1
     5     2     3    1
     6     2    26    1
     7     2    27    1
     8     3     4    1
     9     4     5    1
    10     4     6    1
    11     4     7    1
    12     6    28    1
    13     6    29    1
    14     6    30    1
    15     7    22   ar
    16     7     8   ar
    17     8     9   ar
    18     9    10    1
    19     9    21   ar
    20    10    11    1
    21    10    31    1
    22    10    32    1
    23    11    12    1
    24    11    13   am
    25    12    33    1
    26    12    34    1
    27    12    35    1
    28    13    14    2
    29    13    15    1
    30    15    20   ar
    31    15    16   ar
    32    16    17   ar
    33    16    36    1
    34    17    18   ar
    35    18    19   ar
    36    18    37    1
    37    19    20   ar
    38    19    38    1
    39    21    22   ar
    40    21    39    1
