@<TRIPOS>MOLECULE
ZINC000012382583
 42 42 0 0 0
SMALL
GASTEIGER

@<TRIPOS>ATOM
      1 C          -0.0187    1.5258    0.0104 C.3     1  UNL1       -0.0469
      2 C           0.0021   -0.0041    0.0020 C.3     1  UNL1        0.0175
      3 C           0.7421   -0.5109    1.2415 C.3     1  UNL1       -0.0469
      4 N          -1.3723   -0.5112    0.0124 N.am    1  UNL1       -0.3130
      5 C          -2.0508   -0.6427   -1.1446 C.2     1  UNL1        0.2135
      6 O          -1.5236   -0.3413   -2.1944 O.2     1  UNL1       -0.2758
      7 C          -3.4646   -1.1643   -1.1339 C.3     1  UNL1        0.0279
      8 C          -4.0003   -1.2152   -2.5662 C.3     1  UNL1       -0.0194
      9 C          -5.4141   -1.7368   -2.5555 C.ar    1  UNL1       -0.0468
     10 C          -5.6506   -3.0948   -2.6592 C.ar    1  UNL1       -0.0567
     11 C          -6.9475   -3.5733   -2.6494 C.ar    1  UNL1       -0.0351
     12 C          -8.0078   -2.6938   -2.5354 C.ar    1  UNL1        0.1055
     13 S          -9.6609   -3.3037   -2.5235 S.O2    1  UNL1        0.0604
     14 O         -10.4880   -2.2293   -2.9488 O.2     1  UNL1       -0.1529
     15 O          -9.6280   -4.5650   -3.1770 O.2     1  UNL1       -0.1529
     16 N         -10.0608   -3.6051   -0.9450 N.3     1  UNL1       -0.1827
     17 C         -10.6743   -2.5528   -0.1310 C.3     1  UNL1        0.0086
     18 C          -9.8011   -4.9241   -0.3626 C.3     1  UNL1        0.0086
     19 C          -7.7713   -1.3359   -2.4303 C.ar    1  UNL1       -0.0351
     20 C          -6.4743   -0.8578   -2.4363 C.ar    1  UNL1       -0.0567
     21 H           1.0039    1.9031    0.0027 H       1  UNL1        0.0247
     22 H          -0.5459    1.8868   -0.8726 H       1  UNL1        0.0247
     23 H          -0.5289    1.8773    0.9072 H       1  UNL1        0.0247
     24 H           0.5123   -0.3556   -0.8948 H       1  UNL1        0.0493
     25 H           0.2319   -0.1594    2.1383 H       1  UNL1        0.0247
     26 H           0.7568   -1.6008    1.2356 H       1  UNL1        0.0247
     27 H           1.7647   -0.1336    1.2338 H       1  UNL1        0.0247
     28 H          -1.7940   -0.7522    0.8520 H       1  UNL1        0.1489
     29 H          -3.4790   -2.1662   -0.7048 H       1  UNL1        0.0361
     30 H          -4.0912   -0.5035   -0.5349 H       1  UNL1        0.0361
     31 H          -3.9859   -0.2133   -2.9953 H       1  UNL1        0.0318
     32 H          -3.3738   -1.8760   -3.1652 H       1  UNL1        0.0318
     33 H          -4.8222   -3.7820   -2.7482 H       1  UNL1        0.0621
     34 H          -7.1323   -4.6343   -2.7311 H       1  UNL1        0.0637
     35 H         -11.7588   -2.6063   -0.2254 H       1  UNL1        0.0408
     36 H         -10.3932   -2.6908    0.9131 H       1  UNL1        0.0408
     37 H         -10.3272   -1.5785   -0.4750 H       1  UNL1        0.0408
     38 H          -8.7333   -5.1380   -0.4092 H       1  UNL1        0.0408
     39 H         -10.1285   -4.9330    0.6770 H       1  UNL1        0.0408
     40 H         -10.3484   -5.6825   -0.9224 H       1  UNL1        0.0408
     41 H          -8.5997   -0.6488   -2.3409 H       1  UNL1        0.0637
     42 H          -6.2895    0.2031   -2.3542 H       1  UNL1        0.0621
@<TRIPOS>BOND
     1     1     2    1
     2     1    21    1
     3     1    22    1
     4     1    23    1
     5     2     3    1
     6     2     4    1
     7     2    24    1
     8     3    25    1
     9     3    26    1
    10     3    27    1
    11     4     5   am
    12     4    28    1
    13     5     6    2
    14     5     7    1
    15     7     8    1
    16     7    29    1
    17     7    30    1
    18     8     9    1
    19     8    31    1
    20     8    32    1
    21     9    20   ar
    22     9    10   ar
    23    10    11   ar
    24    10    33    1
    25    11    12   ar
    26    11    34    1
    27    12    13    1
    28    12    19   ar
    29    13    14    2
    30    13    15    2
    31    13    16    1
    32    16    17    1
    33    16    18    1
    34    17    35    1
    35    17    36    1
    36    17    37    1
    37    18    38    1
    38    18    39    1
    39    18    40    1
    40    19    20   ar
    41    19    41    1
    42    20    42    1
