@<TRIPOS>MOLECULE
ZINC000001143057
 47 49 0 0 0
SMALL
GASTEIGER

@<TRIPOS>ATOM
      1 O           0.0020   -0.0040    0.0120 O.2     1  UNL1       -0.2752
      2 C          -0.0144    1.2088    0.0102 C.2     1  UNL1        0.2204
      3 N           1.1435    1.8984    0.0013 N.am    1  UNL1       -0.2853
      4 C           2.3633    1.2187    0.0917 C.ar    1  UNL1        0.0334
      5 C           3.4250    1.7839    0.7857 C.ar    1  UNL1       -0.0399
      6 C           4.6277    1.1105    0.8730 C.ar    1  UNL1       -0.0484
      7 C           4.7754   -0.1250    0.2698 C.ar    1  UNL1        0.0549
      8 C           6.0893   -0.8567    0.3666 C.3     1  UNL1        0.4174
      9 F           6.0861   -1.6724    1.5032 F       1  UNL1       -0.1659
     10 F           6.2681   -1.6469   -0.7739 F       1  UNL1       -0.1659
     11 F           7.1333    0.0698    0.4605 F       1  UNL1       -0.1659
     12 C           3.7199   -0.6907   -0.4217 C.ar    1  UNL1       -0.0484
     13 C           2.5129   -0.0250   -0.5078 C.ar    1  UNL1       -0.0399
     14 C          -1.3296    1.9446    0.0118 C.3     1  UNL1        0.0383
     15 C          -1.4240    2.8226   -1.2381 C.3     1  UNL1       -0.0274
     16 C          -2.7467    3.5952   -1.2158 C.3     1  UNL1        0.0212
     17 N          -3.8511    2.6377   -1.0661 N.3     1  UNL1       -0.1765
     18 S          -5.1137    2.6318   -2.1376 S.O2    1  UNL1        0.0609
     19 O          -6.2142    2.0435   -1.4577 O.2     1  UNL1       -0.1528
     20 O          -5.1592    3.9311   -2.7113 O.2     1  UNL1       -0.1528
     21 C          -4.6860    1.5268   -3.4416 C.ar    1  UNL1        0.1055
     22 C          -4.0079    1.9963   -4.5510 C.ar    1  UNL1       -0.0353
     23 C          -3.6724    1.1293   -5.5740 C.ar    1  UNL1       -0.0599
     24 C          -4.0145   -0.2072   -5.4875 C.ar    1  UNL1       -0.0616
     25 C          -4.6917   -0.6769   -4.3777 C.ar    1  UNL1       -0.0599
     26 C          -5.0235    0.1892   -3.3527 C.ar    1  UNL1       -0.0353
     27 C          -3.8137    1.6853    0.0521 C.3     1  UNL1        0.0212
     28 C          -2.4791    0.9342    0.0155 C.3     1  UNL1       -0.0274
     29 H           1.1313    2.8658   -0.0677 H       1  UNL1        0.1548
     30 H           3.3105    2.7492    1.2565 H       1  UNL1        0.0636
     31 H           5.4538    1.5495    1.4127 H       1  UNL1        0.0624
     32 H           3.8384   -1.6558   -0.8917 H       1  UNL1        0.0624
     33 H           1.6889   -0.4674   -1.0479 H       1  UNL1        0.0636
     34 H          -1.3941    2.5712    0.9013 H       1  UNL1        0.0395
     35 H          -0.5919    3.5265   -1.2520 H       1  UNL1        0.0285
     36 H          -1.3847    2.1943   -2.1279 H       1  UNL1        0.0285
     37 H          -2.7496    4.2905   -0.3764 H       1  UNL1        0.0444
     38 H          -2.8643    4.1455   -2.1492 H       1  UNL1        0.0444
     39 H          -3.7407    3.0405   -4.6185 H       1  UNL1        0.0637
     40 H          -3.1433    1.4963   -6.4411 H       1  UNL1        0.0618
     41 H          -3.7529   -0.8844   -6.2871 H       1  UNL1        0.0618
     42 H          -4.9593   -1.7211   -4.3103 H       1  UNL1        0.0618
     43 H          -5.5526   -0.1778   -2.4857 H       1  UNL1        0.0637
     44 H          -3.9036    2.2249    0.9949 H       1  UNL1        0.0444
     45 H          -4.6352    0.9755   -0.0449 H       1  UNL1        0.0444
     46 H          -2.4298    0.3237   -0.8861 H       1  UNL1        0.0285
     47 H          -2.3978    0.2939    0.8939 H       1  UNL1        0.0285
@<TRIPOS>BOND
     1     1     2    2
     2     2     3   am
     3     2    14    1
     4     3     4    1
     5     3    29    1
     6     4    13   ar
     7     4     5   ar
     8     5     6   ar
     9     5    30    1
    10     6     7   ar
    11     6    31    1
    12     7     8    1
    13     7    12   ar
    14     8     9    1
    15     8    10    1
    16     8    11    1
    17    12    13   ar
    18    12    32    1
    19    13    33    1
    20    14    28    1
    21    14    15    1
    22    14    34    1
    23    15    16    1
    24    15    35    1
    25    15    36    1
    26    16    17    1
    27    16    37    1
    28    16    38    1
    29    18    17    1
    30    17    27    1
    31    18    19    2
    32    18    20    2
    33    18    21    1
    34    21    26   ar
    35    21    22   ar
    36    22    23   ar
    37    22    39    1
    38    23    24   ar
    39    23    40    1
    40    24    25   ar
    41    24    41    1
    42    25    26   ar
    43    25    42    1
    44    26    43    1
    45    27    28    1
    46    27    44    1
    47    27    45    1
    48    28    46    1
    49    28    47    1
