@<TRIPOS>MOLECULE
ZINC000096098240
 39 40 0 0 0
SMALL
GASTEIGER

@<TRIPOS>ATOM
      1 C          -0.0225    1.8097    0.0120 C.3     1  UNL1        0.0548
      2 S           0.0021   -0.0041    0.0020 S.O2    1  UNL1       -0.0309
      3 O           0.8010   -0.4520    1.0884 O.2     1  UNL1       -0.1743
      4 O          -1.3336   -0.4743   -0.1172 O.2     1  UNL1       -0.1743
      5 C           0.8798   -0.3584   -1.5454 C.3     1  UNL1        0.0790
      6 C           2.2776    0.2624   -1.4924 C.3     1  UNL1       -0.0162
      7 C           3.0031   -0.0092   -2.8141 C.3     1  UNL1        0.0222
      8 N           2.9947   -1.4560   -3.0695 N.3     1  UNL1       -0.1765
      9 S           4.4063   -2.2680   -3.3699 S.O2    1  UNL1        0.0609
     10 O           4.0502   -3.4377   -4.0939 O.2     1  UNL1       -0.1528
     11 O           5.3284   -1.3029   -3.8573 O.2     1  UNL1       -0.1528
     12 C           5.0336   -2.8157   -1.8171 C.ar    1  UNL1        0.1055
     13 C           5.8874   -2.0056   -1.0920 C.ar    1  UNL1       -0.0348
     14 C           6.3795   -2.4353    0.1262 C.ar    1  UNL1       -0.0483
     15 C           6.0174   -3.6748    0.6196 C.ar    1  UNL1        0.0549
     16 C           6.5543   -4.1434    1.9474 C.3     1  UNL1        0.4174
     17 F           5.6862   -3.7433    2.9689 F       1  UNL1       -0.1659
     18 F           6.6572   -5.5386    1.9427 F       1  UNL1       -0.1659
     19 F           7.8180   -3.5834    2.1634 F       1  UNL1       -0.1659
     20 C           5.1626   -4.4843   -0.1049 C.ar    1  UNL1       -0.0483
     21 C           4.6674   -4.0530   -1.3213 C.ar    1  UNL1       -0.0348
     22 C           1.7100   -2.1689   -3.0530 C.3     1  UNL1        0.0222
     23 C           0.9991   -1.8731   -1.7286 C.3     1  UNL1       -0.0162
     24 H           1.0001    2.1870    0.0043 H       1  UNL1        0.0464
     25 H          -0.5497    2.1708   -0.8711 H       1  UNL1        0.0464
     26 H          -0.5327    2.1613    0.9088 H       1  UNL1        0.0464
     27 H           0.3257    0.0661   -2.3826 H       1  UNL1        0.0536
     28 H           2.1924    1.3381   -1.3386 H       1  UNL1        0.0296
     29 H           2.8411   -0.1796   -0.6707 H       1  UNL1        0.0296
     30 H           2.4906    0.5081   -3.6252 H       1  UNL1        0.0444
     31 H           4.0320    0.3438   -2.7453 H       1  UNL1        0.0444
     32 H           6.1703   -1.0372   -1.4775 H       1  UNL1        0.0637
     33 H           7.0471   -1.8027    0.6924 H       1  UNL1        0.0624
     34 H           4.8794   -5.4525    0.2808 H       1  UNL1        0.0624
     35 H           3.9995   -4.6854   -1.8873 H       1  UNL1        0.0637
     36 H           1.0921   -1.8278   -3.8835 H       1  UNL1        0.0444
     37 H           1.8858   -3.2409   -3.1418 H       1  UNL1        0.0444
     38 H           1.5746   -2.2950   -0.9046 H       1  UNL1        0.0296
     39 H           0.0038   -2.3174   -1.7429 H       1  UNL1        0.0296
@<TRIPOS>BOND
     1     1     2    1
     2     1    24    1
     3     1    25    1
     4     1    26    1
     5     2     3    2
     6     2     4    2
     7     2     5    1
     8     5    23    1
     9     5     6    1
    10     5    27    1
    11     6     7    1
    12     6    28    1
    13     6    29    1
    14     7     8    1
    15     7    30    1
    16     7    31    1
    17     9     8    1
    18     8    22    1
    19     9    10    2
    20     9    11    2
    21     9    12    1
    22    12    21   ar
    23    12    13   ar
    24    13    14   ar
    25    13    32    1
    26    14    15   ar
    27    14    33    1
    28    15    16    1
    29    15    20   ar
    30    16    17    1
    31    16    18    1
    32    16    19    1
    33    20    21   ar
    34    20    34    1
    35    21    35    1
    36    22    23    1
    37    22    36    1
    38    22    37    1
    39    23    38    1
    40    23    39    1
