@<TRIPOS>MOLECULE
ZINC000035397954
 35 36 0 0 0
SMALL
GASTEIGER

@<TRIPOS>ATOM
      1 C          -0.0178    1.4648    0.0101 C.3     1  UNL1       -0.0127
      2 N           0.0021   -0.0041    0.0020 N.3     1  UNL1       -0.3028
      3 C          -1.3591   -0.5485   -0.0908 C.3     1  UNL1        0.0131
      4 C          -1.2864   -2.0676   -0.2787 C.3     1  UNL1        0.0333
      5 N          -0.4627   -2.6330    0.8007 N.3     1  UNL1       -0.1741
      6 S          -1.0137   -3.8975    1.7170 S.O2    1  UNL1        0.0623
      7 O          -0.3037   -3.8415    2.9466 O.2     1  UNL1       -0.1528
      8 O          -2.4320   -3.8635    1.6363 O.2     1  UNL1       -0.1528
      9 C          -0.5053   -5.3824    0.9161 C.ar    1  UNL1        0.1242
     10 C           0.3919   -6.2303    1.5372 C.ar    1  UNL1       -0.0223
     11 C           0.7909   -7.3955    0.9088 C.ar    1  UNL1        0.0567
     12 C           1.7694   -8.3197    1.5867 C.3     1  UNL1        0.4175
     13 F           1.0705   -9.2527    2.3601 F       1  UNL1       -0.1659
     14 F           2.5257   -8.9893    0.6188 F       1  UNL1       -0.1659
     15 F           2.6204   -7.5750    2.4104 F       1  UNL1       -0.1659
     16 C           0.2925   -7.7131   -0.3406 C.ar    1  UNL1       -0.0486
     17 C          -0.6051   -6.8658   -0.9629 C.ar    1  UNL1       -0.0410
     18 C          -1.0088   -5.7025   -0.3324 C.ar    1  UNL1        0.0673
     19 CL         -2.1359   -4.6378   -1.1133 Cl      1  UNL1       -0.0815
     20 C           0.8636   -2.0457    1.0444 C.3     1  UNL1        0.0333
     21 C           0.7062   -0.5275    1.1802 C.3     1  UNL1        0.0131
     22 H           1.0047    1.8421    0.0024 H       1  UNL1        0.0391
     23 H          -0.5450    1.8259   -0.8730 H       1  UNL1        0.0391
     24 H          -0.5280    1.8163    0.9069 H       1  UNL1        0.0391
     25 H          -1.9051   -0.3210    0.8248 H       1  UNL1        0.0439
     26 H          -1.8727   -0.1009   -0.9417 H       1  UNL1        0.0439
     27 H          -2.2899   -2.4906   -0.2334 H       1  UNL1        0.0456
     28 H          -0.8330   -2.2960   -1.2432 H       1  UNL1        0.0456
     29 H           0.7817   -5.9826    2.5134 H       1  UNL1        0.0643
     30 H           0.6045   -8.6234   -0.8309 H       1  UNL1        0.0623
     31 H          -0.9946   -7.1141   -1.9391 H       1  UNL1        0.0633
     32 H           1.2814   -2.4543    1.9645 H       1  UNL1        0.0456
     33 H           1.5237   -2.2720    0.2071 H       1  UNL1        0.0456
     34 H           1.6905   -0.0647    1.2511 H       1  UNL1        0.0439
     35 H           0.1315   -0.3003    2.0781 H       1  UNL1        0.0439
@<TRIPOS>BOND
     1     1     2    1
     2     1    22    1
     3     1    23    1
     4     1    24    1
     5     2    21    1
     6     2     3    1
     7     3     4    1
     8     3    25    1
     9     3    26    1
    10     4     5    1
    11     4    27    1
    12     4    28    1
    13     6     5    1
    14     5    20    1
    15     6     7    2
    16     6     8    2
    17     6     9    1
    18     9    18   ar
    19     9    10   ar
    20    10    11   ar
    21    10    29    1
    22    11    12    1
    23    11    16   ar
    24    12    13    1
    25    12    14    1
    26    12    15    1
    27    16    17   ar
    28    16    30    1
    29    17    18   ar
    30    17    31    1
    31    18    19    1
    32    20    21    1
    33    20    32    1
    34    20    33    1
    35    21    34    1
    36    21    35    1
