@<TRIPOS>MOLECULE
ZINC000039985286
 43 43 0 0 0
SMALL
GASTEIGER

@<TRIPOS>ATOM
      1 C          -0.0187    1.5258    0.0104 C.3     1  UNL1       -0.0507
      2 C           0.0021   -0.0041    0.0020 C.3     1  UNL1        0.0182
      3 N          -1.3723   -0.5112    0.0124 N.3     1  UNL1       -0.1681
      4 C          -2.1099   -0.6542   -1.2453 C.3     1  UNL1        0.0968
      5 C          -1.7778   -1.9829   -1.8740 C.2     1  UNL1        0.2288
      6 O          -1.0015   -2.7362   -1.3256 O.2     1  UNL1       -0.2743
      7 N          -2.3435   -2.3340   -3.0459 N.am    1  UNL1       -0.3141
      8 C          -2.0207   -3.6257   -3.6571 C.3     1  UNL1        0.0137
      9 C          -2.7910   -3.7751   -4.9706 C.3     1  UNL1       -0.0139
     10 C          -2.4539   -5.1240   -5.6090 C.3     1  UNL1        0.0487
     11 O          -3.1733   -5.2635   -6.8358 O.3     1  UNL1       -0.3829
     12 C          -2.9284   -6.4960   -7.5162 C.3     1  UNL1        0.0364
     13 S          -2.0922   -0.9227    1.4458 S.O2    1  UNL1        0.0613
     14 O          -3.1196   -1.8512    1.1269 O.2     1  UNL1       -0.1528
     15 O          -1.0393   -1.2108    2.3555 O.2     1  UNL1       -0.1528
     16 C          -2.8978    0.5199    2.0580 C.ar    1  UNL1        0.1055
     17 C          -2.2156    1.3954    2.8820 C.ar    1  UNL1       -0.0353
     18 C          -2.8476    2.5271    3.3622 C.ar    1  UNL1       -0.0599
     19 C          -4.1616    2.7836    3.0181 C.ar    1  UNL1       -0.0616
     20 C          -4.8435    1.9086    2.1933 C.ar    1  UNL1       -0.0599
     21 C          -4.2102    0.7790    1.7096 C.ar    1  UNL1       -0.0353
     22 H           1.0039    1.9031    0.0027 H       1  UNL1        0.0243
     23 H          -0.5459    1.8868   -0.8726 H       1  UNL1        0.0243
     24 H          -0.5289    1.8773    0.9072 H       1  UNL1        0.0243
     25 H           0.5123   -0.3556   -0.8948 H       1  UNL1        0.0441
     26 H           0.5293   -0.3651    0.8851 H       1  UNL1        0.0441
     27 H          -3.1804   -0.6037   -1.0465 H       1  UNL1        0.0539
     28 H          -1.8283    0.1500   -1.9251 H       1  UNL1        0.0539
     29 H          -2.9644   -1.7315   -3.4845 H       1  UNL1        0.1487
     30 H          -0.9502   -3.6762   -3.8559 H       1  UNL1        0.0463
     31 H          -2.3023   -4.4299   -2.9773 H       1  UNL1        0.0463
     32 H          -3.8615   -3.7246   -4.7718 H       1  UNL1        0.0302
     33 H          -2.5094   -2.9709   -5.6504 H       1  UNL1        0.0302
     34 H          -1.3833   -5.1745   -5.8078 H       1  UNL1        0.0560
     35 H          -2.7355   -5.9282   -4.9292 H       1  UNL1        0.0560
     36 H          -3.5109   -6.5246   -8.4371 H       1  UNL1        0.0523
     37 H          -1.8677   -6.5750   -7.7546 H       1  UNL1        0.0523
     38 H          -3.2199   -7.3287   -6.8760 H       1  UNL1        0.0523
     39 H          -1.1890    1.1950    3.1509 H       1  UNL1        0.0637
     40 H          -2.3149    3.2108    4.0066 H       1  UNL1        0.0618
     41 H          -4.6556    3.6674    3.3939 H       1  UNL1        0.0618
     42 H          -5.8703    2.1088    1.9247 H       1  UNL1        0.0618
     43 H          -4.7429    0.0954    1.0653 H       1  UNL1        0.0637
@<TRIPOS>BOND
     1     1     2    1
     2     1    22    1
     3     1    23    1
     4     1    24    1
     5     2     3    1
     6     2    25    1
     7     2    26    1
     8     3     4    1
     9    13     3    1
    10     4     5    1
    11     4    27    1
    12     4    28    1
    13     5     6    2
    14     5     7   am
    15     7     8    1
    16     7    29    1
    17     8     9    1
    18     8    30    1
    19     8    31    1
    20     9    10    1
    21     9    32    1
    22     9    33    1
    23    10    11    1
    24    10    34    1
    25    10    35    1
    26    11    12    1
    27    12    36    1
    28    12    37    1
    29    12    38    1
    30    13    14    2
    31    13    15    2
    32    13    16    1
    33    16    21   ar
    34    16    17   ar
    35    17    18   ar
    36    17    39    1
    37    18    19   ar
    38    18    40    1
    39    19    20   ar
    40    19    41    1
    41    20    21   ar
    42    20    42    1
    43    21    43    1
