@<TRIPOS>MOLECULE
ZINC000222818440
 57 58 0 0 0
SMALL
GASTEIGER

@<TRIPOS>ATOM
      1 C           0.0069    1.4986   -0.0141 C.3     1  UNL1       -0.0507
      2 C           0.0332   -0.0312   -0.0184 C.3     1  UNL1        0.0177
      3 N           0.7368   -0.5109    1.1737 N.3     1  UNL1       -0.1771
      4 C           0.0133   -0.6668    2.4381 C.3     1  UNL1        0.0177
      5 C          -0.6692   -2.0358    2.4696 C.3     1  UNL1       -0.0507
      6 S           2.3498   -0.8768    1.0921 S.O2    1  UNL1        0.0608
      7 O           2.6076   -1.7917    2.1484 O.2     1  UNL1       -0.1528
      8 O           2.6272   -1.1656   -0.2713 O.2     1  UNL1       -0.1528
      9 C           3.2386    0.5943    1.4800 C.ar    1  UNL1        0.1060
     10 C           3.5911    1.4733    0.4729 C.ar    1  UNL1       -0.0319
     11 C           4.2877    2.6278    0.7745 C.ar    1  UNL1       -0.0178
     12 C           4.6333    2.9045    2.0890 C.ar    1  UNL1        0.1242
     13 O           5.3181    4.0396    2.3883 O.3     1  UNL1       -0.4825
     14 C           5.6496    4.9034    1.2993 C.3     1  UNL1        0.1655
     15 C           6.4017    6.1013    1.8193 C.2     1  UNL1        0.2548
     16 O           6.6312    6.2051    3.0058 O.2     1  UNL1       -0.2717
     17 N           6.8193    7.0573    0.9660 N.am    1  UNL1       -0.2827
     18 C           7.4316    8.2153    1.4580 C.ar    1  UNL1        0.0335
     19 C           7.2182    9.4356    0.8303 C.ar    1  UNL1       -0.0402
     20 C           7.8240   10.5768    1.3184 C.ar    1  UNL1       -0.0564
     21 C           8.6426   10.5051    2.4305 C.ar    1  UNL1       -0.0385
     22 C           9.3024   11.7523    2.9601 C.3     1  UNL1        0.0489
     23 C           8.4014   12.4042    3.9770 C.2     1  UNL1        0.2148
     24 N           8.7872   13.5417    4.5883 N.am    1  UNL1       -0.3291
     25 O           7.3290   11.9053    4.2453 O.2     1  UNL1       -0.2757
     26 C           8.8568    9.2917    3.0581 C.ar    1  UNL1       -0.0564
     27 C           8.2493    8.1478    2.5784 C.ar    1  UNL1       -0.0402
     28 C           4.2783    2.0206    3.0980 C.ar    1  UNL1       -0.0069
     29 C           4.6518    2.3183    4.5273 C.3     1  UNL1       -0.0362
     30 C           3.5774    0.8705    2.7920 C.ar    1  UNL1       -0.0290
     31 H           1.0282    1.8795   -0.0170 H       1  UNL1        0.0243
     32 H          -0.5165    1.8554   -0.9011 H       1  UNL1        0.0243
     33 H          -0.5096    1.8505    0.8789 H       1  UNL1        0.0243
     34 H          -0.9880   -0.4122   -0.0155 H       1  UNL1        0.0441
     35 H           0.5498   -0.3832   -0.9114 H       1  UNL1        0.0441
     36 H           0.7142   -0.5910    3.2694 H       1  UNL1        0.0441
     37 H          -0.7395    0.1166    2.5249 H       1  UNL1        0.0441
     38 H           0.0837   -2.8192    2.3827 H       1  UNL1        0.0243
     39 H          -1.2074   -2.1518    3.4103 H       1  UNL1        0.0243
     40 H          -1.3700   -2.1116    1.6382 H       1  UNL1        0.0243
     41 H           3.3221    1.2573   -0.5505 H       1  UNL1        0.0638
     42 H           4.5631    3.3140   -0.0127 H       1  UNL1        0.0655
     43 H           6.2729    4.3650    0.5853 H       1  UNL1        0.0795
     44 H           4.7354    5.2342    0.8066 H       1  UNL1        0.0795
     45 H           6.6955    6.9426    0.0108 H       1  UNL1        0.1549
     46 H           6.5794    9.4921   -0.0387 H       1  UNL1        0.0636
     47 H           7.6584   11.5261    0.8307 H       1  UNL1        0.0621
     48 H          10.2505   11.4903    3.4297 H       1  UNL1        0.0407
     49 H           9.4833   12.4447    2.1379 H       1  UNL1        0.0407
     50 H           9.6449   13.9407    4.3737 H       1  UNL1        0.1449
     51 H           8.2072   13.9613    5.2428 H       1  UNL1        0.1449
     52 H           9.4967    9.2390    3.9265 H       1  UNL1        0.0621
     53 H           8.4170    7.2003    3.0689 H       1  UNL1        0.0636
     54 H           3.8542    2.8920    4.9993 H       1  UNL1        0.0279
     55 H           4.7952    1.3827    5.0678 H       1  UNL1        0.0279
     56 H           5.5761    2.8956    4.5486 H       1  UNL1        0.0279
     57 H           3.3006    0.1823    3.5770 H       1  UNL1        0.0641
@<TRIPOS>BOND
     1     1     2    1
     2     1    31    1
     3     1    32    1
     4     1    33    1
     5     2     3    1
     6     2    34    1
     7     2    35    1
     8     3     4    1
     9     6     3    1
    10     4     5    1
    11     4    36    1
    12     4    37    1
    13     5    38    1
    14     5    39    1
    15     5    40    1
    16     6     7    2
    17     6     8    2
    18     6     9    1
    19     9    30   ar
    20     9    10   ar
    21    10    11   ar
    22    10    41    1
    23    11    12   ar
    24    11    42    1
    25    12    13    1
    26    12    28   ar
    27    13    14    1
    28    14    15    1
    29    14    43    1
    30    14    44    1
    31    15    16    2
    32    15    17   am
    33    17    18    1
    34    17    45    1
    35    18    27   ar
    36    18    19   ar
    37    19    20   ar
    38    19    46    1
    39    20    21   ar
    40    20    47    1
    41    21    22    1
    42    21    26   ar
    43    22    23    1
    44    22    48    1
    45    22    49    1
    46    23    24   am
    47    23    25    2
    48    24    50    1
    49    24    51    1
    50    26    27   ar
    51    26    52    1
    52    27    53    1
    53    28    29    1
    54    28    30   ar
    55    29    54    1
    56    29    55    1
    57    29    56    1
    58    30    57    1
