@<TRIPOS>MOLECULE
ZINC000014980932
 47 49 0 0 0
SMALL
GASTEIGER

@<TRIPOS>ATOM
      1 C          -0.0184    1.5028    0.0103 C.3     1  UNL1       -0.0171
      2 C           0.0021   -0.0041    0.0020 C.ar    1  UNL1        0.1071
      3 N           0.0084   -0.7781   -1.0446 N.ar    1  UNL1       -0.0813
      4 O           0.0260   -1.9466   -0.7340 O.2     1  UNL1       -0.3576
      5 C           0.0337   -2.1026    0.5973 C.ar    1  UNL1        0.1607
      6 C           0.0555   -3.4063    1.3528 C.3     1  UNL1       -0.0017
      7 C           0.0244   -0.8570    1.1293 C.ar    1  UNL1        0.1696
      8 S           0.0281   -0.4046    2.8322 S.O2    1  UNL1        0.0659
      9 O          -0.5285    0.9011    2.9018 O.2     1  UNL1       -0.1527
     10 O          -0.5024   -1.5145    3.5435 O.2     1  UNL1       -0.1527
     11 N           1.6108   -0.2636    3.2985 N.3     1  UNL1       -0.1757
     12 C           2.3413   -1.4232    3.8282 C.3     1  UNL1        0.0205
     13 C           2.9463   -1.0473    5.1845 C.3     1  UNL1       -0.0379
     14 C           3.7987    0.2139    5.0265 C.3     1  UNL1       -0.0407
     15 C           2.9168    1.3717    4.5534 C.3     1  UNL1        0.0365
     16 H           2.1168    1.5380    5.2748 H       1  UNL1        0.0394
     17 C           3.7504    2.6211    4.4299 C.2     1  UNL1        0.1675
     18 O           4.2275    2.9281    3.3583 O.2     1  UNL1       -0.2917
     19 C           3.9854    3.4684    5.6100 C.ar    1  UNL1        0.0177
     20 C           3.4417    3.1146    6.8489 C.ar    1  UNL1       -0.0507
     21 C           3.6664    3.9138    7.9499 C.ar    1  UNL1       -0.0495
     22 C           4.4274    5.0637    7.8310 C.ar    1  UNL1        0.0548
     23 C           4.6681    5.9315    9.0394 C.3     1  UNL1        0.4174
     24 F           5.8305    5.5088    9.6930 F       1  UNL1       -0.1659
     25 F           4.8179    7.2624    8.6354 F       1  UNL1       -0.1659
     26 F           3.5791    5.8287    9.9116 F       1  UNL1       -0.1659
     27 C           4.9690    5.4206    6.6084 C.ar    1  UNL1       -0.0495
     28 C           4.7585    4.6286    5.4994 C.ar    1  UNL1       -0.0507
     29 C           2.3131    1.0219    3.1847 C.3     1  UNL1        0.0303
     30 H           1.0042    1.8801    0.0026 H       1  UNL1        0.0294
     31 H          -0.5455    1.8639   -0.8728 H       1  UNL1        0.0294
     32 H          -0.5286    1.8543    0.9071 H       1  UNL1        0.0294
     33 H           0.0639   -4.2359    0.6459 H       1  UNL1        0.0309
     34 H           0.9490   -3.4505    1.9755 H       1  UNL1        0.0309
     35 H          -0.8308   -3.4755    1.9836 H       1  UNL1        0.0309
     36 H           1.6554   -2.2610    3.9536 H       1  UNL1        0.0444
     37 H           3.1374   -1.7003    3.1372 H       1  UNL1        0.0444
     38 H           2.1460   -0.8583    5.9000 H       1  UNL1        0.0278
     39 H           3.5703   -1.8656    5.5438 H       1  UNL1        0.0278
     40 H           4.2502    0.4695    5.9851 H       1  UNL1        0.0273
     41 H           4.5837    0.0320    4.2925 H       1  UNL1        0.0273
     42 H           2.8470    2.2180    6.9431 H       1  UNL1        0.0625
     43 H           3.2471    3.6420    8.9073 H       1  UNL1        0.0623
     44 H           5.5617    6.3195    6.5236 H       1  UNL1        0.0623
     45 H           5.1817    4.9084    4.5460 H       1  UNL1        0.0625
     46 H           3.1085    0.9455    2.4433 H       1  UNL1        0.0451
     47 H           1.6072    1.7975    2.8877 H       1  UNL1        0.0451
@<TRIPOS>BOND
     1     1     2    1
     2     1    30    1
     3     1    31    1
     4     1    32    1
     5     2     7   ar
     6     2     3   ar
     7     3     4   ar
     8     4     5   ar
     9     5     6    1
    10     5     7   ar
    11     6    33    1
    12     6    34    1
    13     6    35    1
    14     7     8    1
    15     8     9    2
    16     8    10    2
    17     8    11    1
    18    11    29    1
    19    11    12    1
    20    12    13    1
    21    12    36    1
    22    12    37    1
    23    13    14    1
    24    13    38    1
    25    13    39    1
    26    14    15    1
    27    14    40    1
    28    14    41    1
    29    15    16    1
    30    15    17    1
    31    15    29    1
    32    17    18    2
    33    17    19    1
    34    19    28   ar
    35    19    20   ar
    36    20    21   ar
    37    20    42    1
    38    21    22   ar
    39    21    43    1
    40    22    23    1
    41    22    27   ar
    42    23    24    1
    43    23    25    1
    44    23    26    1
    45    27    28   ar
    46    27    44    1
    47    28    45    1
    48    29    46    1
    49    29    47    1
