@<TRIPOS>MOLECULE
ZINC000408610246
 59 61 0 0 0
SMALL
GASTEIGER

@<TRIPOS>ATOM
      1 C          -0.0878    2.3221    0.7631 C.3     1  UNL1       -0.0466
      2 C           0.0515    0.8185    0.5169 C.3     1  UNL1        0.0206
      3 H          -0.9379    0.3759    0.4020 H       1  UNL1        0.0495
      4 C           0.8663    0.5836   -0.7567 C.3     1  UNL1       -0.0308
      5 C           0.9003   -0.9132   -1.0715 C.3     1  UNL1       -0.0260
      6 C           1.7028   -1.1446   -2.3259 C.ar    1  UNL1       -0.0473
      7 C           1.0779   -1.1295   -3.5588 C.ar    1  UNL1       -0.0586
      8 C           1.8140   -1.3417   -4.7095 C.ar    1  UNL1       -0.0615
      9 C           3.1751   -1.5686   -4.6272 C.ar    1  UNL1       -0.0617
     10 C           3.8002   -1.5828   -3.3944 C.ar    1  UNL1       -0.0615
     11 C           3.0648   -1.3663   -2.2441 C.ar    1  UNL1       -0.0586
     12 N           0.7347    0.1986    1.6549 N.am    1  UNL1       -0.3116
     13 C           0.0304   -0.1756    2.7414 C.2     1  UNL1        0.2290
     14 O          -1.1690    0.0009    2.7769 O.2     1  UNL1       -0.2743
     15 C           0.7331   -0.8133    3.9121 C.3     1  UNL1        0.0971
     16 N          -0.2445   -1.1253    4.9576 N.3     1  UNL1       -0.1634
     17 C          -0.9972   -2.3811    4.9055 C.3     1  UNL1        0.0488
     18 C          -0.1917   -3.4768    5.5548 C.ar    1  UNL1        0.0035
     19 C          -0.4471   -3.8395    6.8635 C.ar    1  UNL1       -0.0546
     20 C           0.2918   -4.8448    7.4595 C.ar    1  UNL1       -0.0613
     21 C           1.2868   -5.4877    6.7474 C.ar    1  UNL1       -0.0590
     22 C           1.5444   -5.1263    5.4384 C.ar    1  UNL1       -0.0261
     23 C           0.8008   -4.1244    4.8385 C.ar    1  UNL1        0.1278
     24 F           1.0516   -3.7703    3.5590 F       1  UNL1       -0.2052
     25 S          -0.4987   -0.0584    6.1984 S.O2    1  UNL1        0.0616
     26 O          -0.9093   -0.8336    7.3163 O.2     1  UNL1       -0.1528
     27 O           0.6300    0.8044    6.2233 O.2     1  UNL1       -0.1528
     28 C          -1.8794    0.9412    5.7521 C.ar    1  UNL1        0.1056
     29 C          -1.6839    2.1150    5.0485 C.ar    1  UNL1       -0.0340
     30 C          -2.7665    2.8995    4.6982 C.ar    1  UNL1       -0.0415
     31 C          -4.0461    2.5099    5.0517 C.ar    1  UNL1        0.0411
     32 CL         -5.4064    3.4944    4.6115 Cl      1  UNL1       -0.0835
     33 C          -4.2411    1.3350    5.7558 C.ar    1  UNL1       -0.0415
     34 C          -3.1582    0.5484    6.1007 C.ar    1  UNL1       -0.0340
     35 H           0.9016    2.7647    0.8779 H       1  UNL1        0.0247
     36 H          -0.5961    2.7834   -0.0837 H       1  UNL1        0.0247
     37 H          -0.6683    2.4895    1.6704 H       1  UNL1        0.0247
     38 H           0.4054    1.1191   -1.5867 H       1  UNL1        0.0286
     39 H           1.8833    0.9472   -0.6096 H       1  UNL1        0.0286
     40 H           1.3612   -1.4487   -0.2414 H       1  UNL1        0.0314
     41 H          -0.1166   -1.2768   -1.2186 H       1  UNL1        0.0314
     42 H           0.0145   -0.9523   -3.6231 H       1  UNL1        0.0620
     43 H           1.3256   -1.3306   -5.6727 H       1  UNL1        0.0618
     44 H           3.7501   -1.7351   -5.5262 H       1  UNL1        0.0618
     45 H           4.8636   -1.7603   -3.3301 H       1  UNL1        0.0618
     46 H           3.5532   -1.3774   -1.2808 H       1  UNL1        0.0620
     47 H           1.6940    0.0574    1.6265 H       1  UNL1        0.1490
     48 H           1.2220   -1.7314    3.5862 H       1  UNL1        0.0539
     49 H           1.4799   -0.1244    4.3068 H       1  UNL1        0.0539
     50 H          -1.9415   -2.2609    5.4364 H       1  UNL1        0.0494
     51 H          -1.1954   -2.6430    3.8662 H       1  UNL1        0.0494
     52 H          -1.2238   -3.3374    7.4210 H       1  UNL1        0.0622
     53 H           0.0915   -5.1277    8.4824 H       1  UNL1        0.0618
     54 H           1.8636   -6.2726    7.2141 H       1  UNL1        0.0618
     55 H           2.3223   -5.6283    4.8824 H       1  UNL1        0.0646
     56 H          -0.6850    2.4193    4.7729 H       1  UNL1        0.0637
     57 H          -2.6136    3.8167    4.1489 H       1  UNL1        0.0633
     58 H          -5.2397    1.0305    6.0323 H       1  UNL1        0.0633
     59 H          -3.3103   -0.3689    6.6500 H       1  UNL1        0.0637
@<TRIPOS>BOND
     1     1     2    1
     2     1    35    1
     3     1    36    1
     4     1    37    1
     5     2     3    1
     6     2     4    1
     7     2    12    1
     8     4     5    1
     9     4    38    1
    10     4    39    1
    11     5     6    1
    12     5    40    1
    13     5    41    1
    14     6    11   ar
    15     6     7   ar
    16     7     8   ar
    17     7    42    1
    18     8     9   ar
    19     8    43    1
    20     9    10   ar
    21     9    44    1
    22    10    11   ar
    23    10    45    1
    24    11    46    1
    25    12    13   am
    26    12    47    1
    27    13    14    2
    28    13    15    1
    29    15    16    1
    30    15    48    1
    31    15    49    1
    32    16    17    1
    33    25    16    1
    34    17    18    1
    35    17    50    1
    36    17    51    1
    37    18    23   ar
    38    18    19   ar
    39    19    20   ar
    40    19    52    1
    41    20    21   ar
    42    20    53    1
    43    21    22   ar
    44    21    54    1
    45    22    23   ar
    46    22    55    1
    47    23    24    1
    48    25    26    2
    49    25    27    2
    50    25    28    1
    51    28    34   ar
    52    28    29   ar
    53    29    30   ar
    54    29    56    1
    55    30    31   ar
    56    30    57    1
    57    31    32    1
    58    31    33   ar
    59    33    34   ar
    60    33    58    1
    61    34    59    1
