@<TRIPOS>MOLECULE
ZINC000013038404
 58 60 0 0 0
SMALL
GASTEIGER

@<TRIPOS>ATOM
      1 C           3.6150   -1.0808   -0.1119 C.3     1  UNL1       -0.0586
      2 C           3.4808   -1.8831   -1.4078 C.3     1  UNL1       -0.0198
      3 C           4.8151   -1.8700   -2.1563 C.3     1  UNL1       -0.0586
      4 C           3.1018   -3.3047   -1.0814 C.ar    1  UNL1       -0.0236
      5 C           3.9783   -4.1104   -0.3819 C.ar    1  UNL1       -0.0566
      6 C           3.6315   -5.4154   -0.0824 C.ar    1  UNL1       -0.0614
      7 C           2.4067   -5.9173   -0.4817 C.ar    1  UNL1       -0.0600
      8 C           1.5252   -5.1163   -1.1813 C.ar    1  UNL1       -0.0402
      9 C           1.8683   -3.8041   -1.4790 C.ar    1  UNL1        0.0369
     10 N           0.9774   -2.9899   -2.1871 N.am    1  UNL1       -0.2842
     11 C           0.1236   -3.5378   -3.0744 C.2     1  UNL1        0.2313
     12 O           0.0628   -4.7433   -3.1927 O.2     1  UNL1       -0.2741
     13 C          -0.7557   -2.6524   -3.9194 C.3     1  UNL1        0.0761
     14 N          -1.5712   -3.4836   -4.8149 N.3     1  UNL1       -0.2915
     15 C          -2.4405   -4.3866   -4.0488 C.3     1  UNL1        0.0138
     16 C          -3.3989   -5.1023   -5.0067 C.3     1  UNL1        0.0333
     17 N          -2.6066   -5.7497   -6.0631 N.3     1  UNL1       -0.1741
     18 S          -2.8270   -7.3491   -6.4315 S.O2    1  UNL1        0.0609
     19 O          -1.6185   -7.7926   -7.0332 O.2     1  UNL1       -0.1528
     20 O          -3.3864   -7.9541   -5.2738 O.2     1  UNL1       -0.1528
     21 C          -4.0648   -7.4304   -7.6828 C.ar    1  UNL1        0.1055
     22 C          -5.3976   -7.5339   -7.3309 C.ar    1  UNL1       -0.0348
     23 C          -6.3688   -7.5977   -8.3126 C.ar    1  UNL1       -0.0483
     24 C          -6.0072   -7.5573   -9.6462 C.ar    1  UNL1        0.0549
     25 C          -7.0658   -7.6273  -10.7164 C.3     1  UNL1        0.4174
     26 F          -7.4932   -6.3338  -11.0349 F       1  UNL1       -0.1659
     27 F          -6.5352   -8.2375  -11.8581 F       1  UNL1       -0.1659
     28 F          -8.1519   -8.3756  -10.2498 F       1  UNL1       -0.1659
     29 C          -4.6745   -7.4524   -9.9981 C.ar    1  UNL1       -0.0483
     30 C          -3.7036   -7.3848   -9.0164 C.ar    1  UNL1       -0.0348
     31 C          -1.6136   -4.9389   -6.7841 C.3     1  UNL1        0.0333
     32 C          -0.7255   -4.2297   -5.7562 C.3     1  UNL1        0.0138
     33 H           3.8891   -0.0525   -0.3480 H       1  UNL1        0.0235
     34 H           2.6644   -1.0901    0.4213 H       1  UNL1        0.0235
     35 H           4.3872   -1.5280    0.5140 H       1  UNL1        0.0235
     36 H           2.7086   -1.4358   -2.0337 H       1  UNL1        0.0344
     37 H           5.5872   -2.3172   -1.5304 H       1  UNL1        0.0235
     38 H           4.7194   -2.4415   -3.0795 H       1  UNL1        0.0235
     39 H           5.0892   -0.8417   -2.3923 H       1  UNL1        0.0235
     40 H           4.9358   -3.7213   -0.0686 H       1  UNL1        0.0621
     41 H           4.3191   -6.0438    0.4642 H       1  UNL1        0.0618
     42 H           2.1389   -6.9368   -0.2466 H       1  UNL1        0.0618
     43 H           0.5687   -5.5090   -1.4932 H       1  UNL1        0.0636
     44 H           0.9745   -2.0312   -2.0395 H       1  UNL1        0.1549
     45 H          -1.4087   -2.0658   -3.2732 H       1  UNL1        0.0522
     46 H          -0.1336   -1.9820   -4.5123 H       1  UNL1        0.0522
     47 H          -1.8299   -5.1236   -3.5272 H       1  UNL1        0.0440
     48 H          -3.0145   -3.8101   -3.3233 H       1  UNL1        0.0440
     49 H          -3.9669   -5.8558   -4.4611 H       1  UNL1        0.0456
     50 H          -4.0803   -4.3775   -5.4522 H       1  UNL1        0.0456
     51 H          -5.6801   -7.5654   -6.2890 H       1  UNL1        0.0637
     52 H          -7.4100   -7.6793   -8.0376 H       1  UNL1        0.0624
     53 H          -4.3920   -7.4205  -11.0400 H       1  UNL1        0.0624
     54 H          -2.6624   -7.3028   -9.2913 H       1  UNL1        0.0637
     55 H          -1.0012   -5.5845   -7.4136 H       1  UNL1        0.0456
     56 H          -2.1234   -4.1984   -7.4004 H       1  UNL1        0.0456
     57 H          -0.0556   -3.5394   -6.2691 H       1  UNL1        0.0440
     58 H          -0.1387   -4.9689   -5.2109 H       1  UNL1        0.0440
@<TRIPOS>BOND
     1     1     2    1
     2     1    33    1
     3     1    34    1
     4     1    35    1
     5     2     3    1
     6     2     4    1
     7     2    36    1
     8     3    37    1
     9     3    38    1
    10     3    39    1
    11     4     9   ar
    12     4     5   ar
    13     5     6   ar
    14     5    40    1
    15     6     7   ar
    16     6    41    1
    17     7     8   ar
    18     7    42    1
    19     8     9   ar
    20     8    43    1
    21     9    10    1
    22    10    11   am
    23    10    44    1
    24    11    12    2
    25    11    13    1
    26    13    14    1
    27    13    45    1
    28    13    46    1
    29    14    32    1
    30    14    15    1
    31    15    16    1
    32    15    47    1
    33    15    48    1
    34    16    17    1
    35    16    49    1
    36    16    50    1
    37    18    17    1
    38    17    31    1
    39    18    19    2
    40    18    20    2
    41    18    21    1
    42    21    30   ar
    43    21    22   ar
    44    22    23   ar
    45    22    51    1
    46    23    24   ar
    47    23    52    1
    48    24    25    1
    49    24    29   ar
    50    25    26    1
    51    25    27    1
    52    25    28    1
    53    29    30   ar
    54    29    53    1
    55    30    54    1
    56    31    32    1
    57    31    55    1
    58    31    56    1
    59    32    57    1
    60    32    58    1
