@<TRIPOS>MOLECULE
ZINC000001133096
 57 59 0 0 0
SMALL
GASTEIGER

@<TRIPOS>ATOM
      1 C          -3.5573   -9.2274   -0.1152 C.3     1  UNL1       -0.0397
      2 C          -2.6433   -8.0296   -0.0862 C.ar    1  UNL1       -0.0503
      3 C          -2.3110   -7.4429    1.1206 C.ar    1  UNL1       -0.0570
      4 C          -1.4726   -6.3441    1.1472 C.ar    1  UNL1       -0.0351
      5 C          -0.9661   -5.8324   -0.0328 C.ar    1  UNL1        0.1055
      6 S           0.1021   -4.4316    0.0011 S.O2    1  UNL1        0.0616
      7 O          -0.0100   -3.8105   -1.2721 O.2     1  UNL1       -0.1528
      8 O          -0.1626   -3.7546    1.2221 O.2     1  UNL1       -0.1528
      9 N           1.6536   -5.0006    0.1087 N.3     1  UNL1       -0.1635
     10 C           2.2155   -5.3532    1.4149 C.3     1  UNL1        0.0971
     11 C           2.0395   -6.8305    1.6553 C.2     1  UNL1        0.2289
     12 O           1.4980   -7.5208    0.8179 O.2     1  UNL1       -0.2743
     13 N           2.4839   -7.3845    2.8007 N.am    1  UNL1       -0.3117
     14 C           2.3128   -8.8206    3.0344 C.3     1  UNL1        0.0379
     15 C           2.8997   -9.1888    4.3986 C.3     1  UNL1        0.0742
     16 H           2.4008   -8.6272    5.1884 H       1  UNL1        0.0611
     17 C           2.7603  -10.7112    4.6508 C.3     1  UNL1       -0.0231
     18 C           3.9140  -10.9492    5.6628 C.3     1  UNL1       -0.0271
     19 C           4.9817   -9.9416    5.1853 C.3     1  UNL1        0.0482
     20 O           4.3126   -8.9308    4.4195 O.3     1  UNL1       -0.3750
     21 C           2.4641   -5.1515   -1.1023 C.3     1  UNL1        0.0461
     22 C           3.3251   -3.9284   -1.2860 C.ar    1  UNL1       -0.0314
     23 C           2.8966   -2.8977   -2.1011 C.ar    1  UNL1       -0.0573
     24 C           3.6866   -1.7757   -2.2697 C.ar    1  UNL1       -0.0612
     25 C           4.9046   -1.6844   -1.6228 C.ar    1  UNL1       -0.0588
     26 C           5.3328   -2.7150   -0.8067 C.ar    1  UNL1       -0.0501
     27 C           6.6610   -2.6158   -0.1018 C.3     1  UNL1       -0.0397
     28 C           4.5412   -3.8349   -0.6348 C.ar    1  UNL1       -0.0544
     29 C          -1.2973   -6.4200   -1.2394 C.ar    1  UNL1       -0.0351
     30 C          -2.1327   -7.5211   -1.2658 C.ar    1  UNL1       -0.0570
     31 H          -2.9644  -10.1389   -0.0386 H       1  UNL1        0.0278
     32 H          -4.2523   -9.1746    0.7229 H       1  UNL1        0.0278
     33 H          -4.1164   -9.2353   -1.0509 H       1  UNL1        0.0278
     34 H          -2.7067   -7.8427    2.0425 H       1  UNL1        0.0621
     35 H          -1.2135   -5.8853    2.0900 H       1  UNL1        0.0637
     36 H           3.2770   -5.1062    1.4324 H       1  UNL1        0.0539
     37 H           1.6994   -4.7941    2.1954 H       1  UNL1        0.0539
     38 H           2.9170   -6.8323    3.4704 H       1  UNL1        0.1488
     39 H           1.2513   -9.0676    3.0169 H       1  UNL1        0.0487
     40 H           2.8289   -9.3797    2.2539 H       1  UNL1        0.0487
     41 H           1.7934  -10.9490    5.0943 H       1  UNL1        0.0291
     42 H           2.9194  -11.2776    3.7332 H       1  UNL1        0.0291
     43 H           3.5921  -10.7210    6.6788 H       1  UNL1        0.0288
     44 H           4.2865  -11.9712    5.5930 H       1  UNL1        0.0288
     45 H           5.4724   -9.4871    6.0460 H       1  UNL1        0.0560
     46 H           5.7187  -10.4504    4.5639 H       1  UNL1        0.0560
     47 H           3.0994   -6.0321   -1.0069 H       1  UNL1        0.0493
     48 H           1.8091   -5.2678   -1.9657 H       1  UNL1        0.0493
     49 H           1.9449   -2.9690   -2.6066 H       1  UNL1        0.0621
     50 H           3.3520   -0.9706   -2.9071 H       1  UNL1        0.0618
     51 H           5.5219   -0.8082   -1.7550 H       1  UNL1        0.0620
     52 H           6.5213   -2.1464    0.8721 H       1  UNL1        0.0278
     53 H           7.0767   -3.6144    0.0325 H       1  UNL1        0.0278
     54 H           7.3458   -2.0146   -0.6999 H       1  UNL1        0.0278
     55 H           4.8757   -4.6400    0.0027 H       1  UNL1        0.0623
     56 H          -0.9013   -6.0204   -2.1614 H       1  UNL1        0.0637
     57 H          -2.3914   -7.9802   -2.2085 H       1  UNL1        0.0621
@<TRIPOS>BOND
     1     1     2    1
     2     1    31    1
     3     1    32    1
     4     1    33    1
     5     2    30   ar
     6     2     3   ar
     7     3     4   ar
     8     3    34    1
     9     4     5   ar
    10     4    35    1
    11     5     6    1
    12     5    29   ar
    13     6     7    2
    14     6     8    2
    15     6     9    1
    16     9    10    1
    17     9    21    1
    18    10    11    1
    19    10    36    1
    20    10    37    1
    21    11    12    2
    22    11    13   am
    23    13    14    1
    24    13    38    1
    25    14    15    1
    26    14    39    1
    27    14    40    1
    28    15    16    1
    29    15    20    1
    30    15    17    1
    31    17    18    1
    32    17    41    1
    33    17    42    1
    34    18    19    1
    35    18    43    1
    36    18    44    1
    37    19    20    1
    38    19    45    1
    39    19    46    1
    40    21    22    1
    41    21    47    1
    42    21    48    1
    43    22    28   ar
    44    22    23   ar
    45    23    24   ar
    46    23    49    1
    47    24    25   ar
    48    24    50    1
    49    25    26   ar
    50    25    51    1
    51    26    27    1
    52    26    28   ar
    53    27    52    1
    54    27    53    1
    55    27    54    1
    56    28    55    1
    57    29    30   ar
    58    29    56    1
    59    30    57    1
