@<TRIPOS>MOLECULE
ZINC000002905973
 49 50 0 0 0
SMALL
GASTEIGER

@<TRIPOS>ATOM
      1 C          -0.0187    1.5258    0.0104 C.3     1  UNL1       -0.0636
      2 C           0.0021   -0.0041    0.0020 C.3     1  UNL1       -0.0376
      3 C           0.7182   -0.4975   -1.2568 C.3     1  UNL1        0.0201
      4 H           1.7103   -0.0491   -1.3098 H       1  UNL1        0.0495
      5 C           0.8493   -2.0210   -1.2049 C.3     1  UNL1       -0.0466
      6 N          -0.0549   -0.1139   -2.4405 N.am    1  UNL1       -0.3116
      7 C           0.5610    0.0279   -3.6309 C.2     1  UNL1        0.2290
      8 O           1.7554   -0.1622   -3.7221 O.2     1  UNL1       -0.2743
      9 C          -0.2343    0.4225   -4.8486 C.3     1  UNL1        0.0971
     10 N           0.6578    0.5093   -6.0075 N.3     1  UNL1       -0.1635
     11 C           0.9760   -0.6949   -6.7787 C.3     1  UNL1        0.0460
     12 C          -0.1001   -0.9320   -7.8067 C.ar    1  UNL1       -0.0317
     13 C          -1.2033   -1.7015   -7.4878 C.ar    1  UNL1       -0.0573
     14 C          -2.1904   -1.9190   -8.4308 C.ar    1  UNL1       -0.0615
     15 C          -2.0745   -1.3665   -9.6926 C.ar    1  UNL1       -0.0617
     16 C          -0.9718   -0.5962  -10.0113 C.ar    1  UNL1       -0.0615
     17 C           0.0132   -0.3752   -9.0669 C.ar    1  UNL1       -0.0573
     18 S           1.3064    1.9686   -6.4456 S.O2    1  UNL1        0.0616
     19 O           1.6313    1.8654   -7.8251 O.2     1  UNL1       -0.1528
     20 O           0.4392    2.9661   -5.9239 O.2     1  UNL1       -0.1528
     21 C           2.8350    2.1392   -5.5859 C.ar    1  UNL1        0.1055
     22 C           2.8628    2.7282   -4.3356 C.ar    1  UNL1       -0.0353
     23 C           4.0620    2.8620   -3.6611 C.ar    1  UNL1       -0.0599
     24 C           5.2333    2.4064   -4.2367 C.ar    1  UNL1       -0.0616
     25 C           5.2054    1.8166   -5.4866 C.ar    1  UNL1       -0.0599
     26 C           4.0056    1.6789   -6.1592 C.ar    1  UNL1       -0.0353
     27 H           1.0039    1.9031    0.0027 H       1  UNL1        0.0230
     28 H          -0.5459    1.8868   -0.8726 H       1  UNL1        0.0230
     29 H          -0.5289    1.8773    0.9072 H       1  UNL1        0.0230
     30 H           0.5293   -0.3651    0.8851 H       1  UNL1        0.0280
     31 H          -1.0205   -0.3814    0.0098 H       1  UNL1        0.0280
     32 H           1.3594   -2.3725   -2.1017 H       1  UNL1        0.0247
     33 H           1.4245   -2.3064   -0.3242 H       1  UNL1        0.0247
     34 H          -0.1428   -2.4694   -1.1520 H       1  UNL1        0.0247
     35 H          -1.0102    0.0381   -2.3676 H       1  UNL1        0.1490
     36 H          -1.0041   -0.3256   -5.0379 H       1  UNL1        0.0539
     37 H          -0.7034    1.3915   -4.6778 H       1  UNL1        0.0539
     38 H           1.9347   -0.5625   -7.2801 H       1  UNL1        0.0493
     39 H           1.0324   -1.5519   -6.1075 H       1  UNL1        0.0493
     40 H          -1.2938   -2.1331   -6.5019 H       1  UNL1        0.0621
     41 H          -3.0519   -2.5208   -8.1818 H       1  UNL1        0.0618
     42 H          -2.8454   -1.5370  -10.4296 H       1  UNL1        0.0618
     43 H          -0.8811   -0.1649  -10.9973 H       1  UNL1        0.0618
     44 H           0.8747    0.2266   -9.3159 H       1  UNL1        0.0621
     45 H           1.9476    3.0841   -3.8859 H       1  UNL1        0.0637
     46 H           4.0838    3.3228   -2.6846 H       1  UNL1        0.0618
     47 H           6.1703    2.5116   -3.7101 H       1  UNL1        0.0618
     48 H           6.1205    1.4609   -5.9364 H       1  UNL1        0.0618
     49 H           3.9837    1.2180   -7.1357 H       1  UNL1        0.0637
@<TRIPOS>BOND
     1     1     2    1
     2     1    27    1
     3     1    28    1
     4     1    29    1
     5     2     3    1
     6     2    30    1
     7     2    31    1
     8     3     4    1
     9     3     5    1
    10     3     6    1
    11     5    32    1
    12     5    33    1
    13     5    34    1
    14     6     7   am
    15     6    35    1
    16     7     8    2
    17     7     9    1
    18     9    10    1
    19     9    36    1
    20     9    37    1
    21    10    11    1
    22    18    10    1
    23    11    12    1
    24    11    38    1
    25    11    39    1
    26    12    17   ar
    27    12    13   ar
    28    13    14   ar
    29    13    40    1
    30    14    15   ar
    31    14    41    1
    32    15    16   ar
    33    15    42    1
    34    16    17   ar
    35    16    43    1
    36    17    44    1
    37    18    19    2
    38    18    20    2
    39    18    21    1
    40    21    26   ar
    41    21    22   ar
    42    22    23   ar
    43    22    45    1
    44    23    24   ar
    45    23    46    1
    46    24    25   ar
    47    24    47    1
    48    25    26   ar
    49    25    48    1
    50    26    49    1
