@<TRIPOS>MOLECULE
ZINC000053202972
 39 40 0 0 0
SMALL
GASTEIGER

@<TRIPOS>ATOM
      1 C          -0.0178    1.4648    0.0101 C.3     1  UNL1       -0.0446
      2 N           0.0021   -0.0041    0.0020 N.4     1  UNL1        0.2279
      3 H           0.4901   -0.3383    0.8195 H       1  UNL1        0.2014
      4 H          -0.9445   -0.3533    0.0092 H       1  UNL1        0.2014
      5 C           0.6897   -0.4778   -1.2066 C.3     1  UNL1       -0.0082
      6 H           1.6818   -0.0296   -1.2600 H       1  UNL1        0.0864
      7 C          -0.1184   -0.0788   -2.4435 C.3     1  UNL1       -0.0073
      8 C           0.6136   -0.5432   -3.7048 C.3     1  UNL1       -0.0334
      9 C           0.7422   -2.0695   -3.6829 C.3     1  UNL1        0.0209
     10 N           1.3897   -2.4717   -2.4268 N.3     1  UNL1       -0.1712
     11 S           2.7370   -3.4343   -2.4427 S.O2    1  UNL1        0.0610
     12 O           2.7854   -4.0777   -1.1766 O.2     1  UNL1       -0.1528
     13 O           2.7094   -4.1430   -3.6740 O.2     1  UNL1       -0.1528
     14 C           4.1385   -2.3688   -2.5132 C.ar    1  UNL1        0.1055
     15 C           4.6485   -1.9775   -3.7370 C.ar    1  UNL1       -0.0348
     16 C           5.7480   -1.1416   -3.7923 C.ar    1  UNL1       -0.0483
     17 C           6.3374   -0.6965   -2.6238 C.ar    1  UNL1        0.0549
     18 C           7.5363    0.2145   -2.6841 C.3     1  UNL1        0.4174
     19 F           7.1095    1.5467   -2.7004 F       1  UNL1       -0.1659
     20 F           8.3439   -0.0028   -1.5626 F       1  UNL1       -0.1659
     21 F           8.2687   -0.0548   -3.8453 F       1  UNL1       -0.1659
     22 C           5.8266   -1.0866   -1.4000 C.ar    1  UNL1       -0.0483
     23 C           4.7247   -1.9195   -1.3446 C.ar    1  UNL1       -0.0348
     24 C           0.8198   -2.0034   -1.1561 C.3     1  UNL1        0.0633
     25 H           1.0047    1.8421    0.0024 H       1  UNL1        0.0777
     26 H          -0.5450    1.8259   -0.8730 H       1  UNL1        0.0777
     27 H          -0.5280    1.8163    0.9069 H       1  UNL1        0.0777
     28 H          -1.1018   -0.5468   -2.4014 H       1  UNL1        0.0321
     29 H          -0.2329    1.0049   -2.4684 H       1  UNL1        0.0321
     30 H           0.0493   -0.2381   -4.5860 H       1  UNL1        0.0280
     31 H           1.6067   -0.0948   -3.7349 H       1  UNL1        0.0280
     32 H          -0.2483   -2.5205   -3.7442 H       1  UNL1        0.0444
     33 H           1.3481   -2.3973   -4.5276 H       1  UNL1        0.0444
     34 H           4.1880   -2.3252   -4.6500 H       1  UNL1        0.0637
     35 H           6.1468   -0.8365   -4.7485 H       1  UNL1        0.0624
     36 H           6.2868   -0.7386   -0.4870 H       1  UNL1        0.0624
     37 H           4.3257   -2.2243   -0.3885 H       1  UNL1        0.0637
     38 H           1.4767   -2.2879   -0.3341 H       1  UNL1        0.0500
     39 H          -0.1645   -2.4487   -1.0109 H       1  UNL1        0.0500
@<TRIPOS>UNITY_ATOM_ATTR
2 1
charge 1
@<TRIPOS>BOND
     1     1     2    1
     2     1    25    1
     3     1    26    1
     4     1    27    1
     5     2     3    1
     6     2     4    1
     7     2     5    1
     8     5     6    1
     9     5    24    1
    10     5     7    1
    11     7     8    1
    12     7    28    1
    13     7    29    1
    14     8     9    1
    15     8    30    1
    16     8    31    1
    17     9    10    1
    18     9    32    1
    19     9    33    1
    20    11    10    1
    21    10    24    1
    22    11    12    2
    23    11    13    2
    24    11    14    1
    25    14    23   ar
    26    14    15   ar
    27    15    16   ar
    28    15    34    1
    29    16    17   ar
    30    16    35    1
    31    17    18    1
    32    17    22   ar
    33    18    19    1
    34    18    20    1
    35    18    21    1
    36    22    23   ar
    37    22    36    1
    38    23    37    1
    39    24    38    1
    40    24    39    1
