@<TRIPOS>MOLECULE
ZINC000028208261
 52 52 0 0 0
SMALL
GASTEIGER

@<TRIPOS>ATOM
      1 C          -0.0187    1.5258    0.0104 C.3     1  UNL1       -0.0652
      2 C           0.0021   -0.0041    0.0020 C.3     1  UNL1       -0.0542
      3 C           0.7421   -0.5109    1.2415 C.3     1  UNL1       -0.0350
      4 C           0.7628   -2.0407    1.2331 C.3     1  UNL1        0.0204
      5 H          -0.2567   -2.4175    1.1513 H       1  UNL1        0.0495
      6 C           1.3918   -2.5494    2.5318 C.3     1  UNL1       -0.0466
      7 N           1.5508   -2.5122    0.0916 N.am    1  UNL1       -0.3099
      8 C           1.3205   -3.7345   -0.4273 C.2     1  UNL1        0.2509
      9 O           0.4611   -4.4442    0.0507 O.2     1  UNL1       -0.2721
     10 C           2.1311   -4.2195   -1.6016 C.3     1  UNL1        0.1652
     11 O           1.7032   -5.5334   -1.9657 O.3     1  UNL1       -0.4813
     12 C           2.3375   -6.1204   -3.0147 C.ar    1  UNL1        0.1395
     13 C           3.3543   -5.4483   -3.6760 C.ar    1  UNL1       -0.0166
     14 C           3.9981   -6.0473   -4.7420 C.ar    1  UNL1       -0.0318
     15 C           3.6294   -7.3155   -5.1501 C.ar    1  UNL1        0.1071
     16 S           4.4527   -8.0759   -6.5098 S.O2    1  UNL1        0.0609
     17 O           3.5544   -9.0456   -7.0314 O.2     1  UNL1       -0.1528
     18 O           4.9965   -7.0206   -7.2907 O.2     1  UNL1       -0.1528
     19 N           5.7414   -8.9150   -5.8954 N.3     1  UNL1       -0.1771
     20 C           5.5795  -10.3140   -5.4921 C.3     1  UNL1        0.0177
     21 C           6.0005  -11.2289   -6.6439 C.3     1  UNL1       -0.0507
     22 C           7.0434   -8.2583   -5.7553 C.3     1  UNL1        0.0177
     23 C           7.1888   -7.7121   -4.3335 C.3     1  UNL1       -0.0507
     24 C           2.6158   -7.9887   -4.4930 C.ar    1  UNL1       -0.0134
     25 C           1.9724   -7.3966   -3.4226 C.ar    1  UNL1        0.0844
     26 CL          0.7001   -8.2418   -2.5976 Cl      1  UNL1       -0.0797
     27 H           1.0039    1.9031    0.0027 H       1  UNL1        0.0230
     28 H          -0.5459    1.8868   -0.8726 H       1  UNL1        0.0230
     29 H          -0.5289    1.8773    0.9072 H       1  UNL1        0.0230
     30 H          -1.0205   -0.3814    0.0098 H       1  UNL1        0.0263
     31 H           0.5123   -0.3556   -0.8948 H       1  UNL1        0.0263
     32 H           1.7647   -0.1336    1.2338 H       1  UNL1        0.0283
     33 H           0.2319   -0.1594    2.1383 H       1  UNL1        0.0283
     34 H           2.4113   -2.1727    2.6137 H       1  UNL1        0.0247
     35 H           0.8055   -2.1987    3.3812 H       1  UNL1        0.0247
     36 H           1.4065   -3.6393    2.5258 H       1  UNL1        0.0247
     37 H           2.2382   -1.9445   -0.2908 H       1  UNL1        0.1491
     38 H           1.9885   -3.5441   -2.4452 H       1  UNL1        0.0795
     39 H           3.1863   -4.2433   -1.3297 H       1  UNL1        0.0795
     40 H           3.6426   -4.4572   -3.3583 H       1  UNL1        0.0655
     41 H           4.7900   -5.5239   -5.2571 H       1  UNL1        0.0638
     42 H           6.2033  -10.5156   -4.6213 H       1  UNL1        0.0441
     43 H           4.5352  -10.5016   -5.2422 H       1  UNL1        0.0441
     44 H           7.0448  -11.0413   -6.8938 H       1  UNL1        0.0243
     45 H           5.8800  -12.2698   -6.3438 H       1  UNL1        0.0243
     46 H           5.3767  -11.0273   -7.5147 H       1  UNL1        0.0243
     47 H           7.8371   -8.9795   -5.9503 H       1  UNL1        0.0441
     48 H           7.1150   -7.4374   -6.4689 H       1  UNL1        0.0441
     49 H           8.1575   -7.2235   -4.2292 H       1  UNL1        0.0243
     50 H           6.3952   -6.9909   -4.1384 H       1  UNL1        0.0243
     51 H           7.1172   -8.5330   -3.6199 H       1  UNL1        0.0243
     52 H           2.3296   -8.9795   -4.8137 H       1  UNL1        0.0653
@<TRIPOS>BOND
     1     1     2    1
     2     1    27    1
     3     1    28    1
     4     1    29    1
     5     2     3    1
     6     2    30    1
     7     2    31    1
     8     3     4    1
     9     3    32    1
    10     3    33    1
    11     4     5    1
    12     4     6    1
    13     4     7    1
    14     6    34    1
    15     6    35    1
    16     6    36    1
    17     7     8   am
    18     7    37    1
    19     8     9    2
    20     8    10    1
    21    10    11    1
    22    10    38    1
    23    10    39    1
    24    11    12    1
    25    12    25   ar
    26    12    13   ar
    27    13    14   ar
    28    13    40    1
    29    14    15   ar
    30    14    41    1
    31    15    16    1
    32    15    24   ar
    33    16    17    2
    34    16    18    2
    35    16    19    1
    36    19    20    1
    37    19    22    1
    38    20    21    1
    39    20    42    1
    40    20    43    1
    41    21    44    1
    42    21    45    1
    43    21    46    1
    44    22    23    1
    45    22    47    1
    46    22    48    1
    47    23    49    1
    48    23    50    1
    49    23    51    1
    50    24    25   ar
    51    24    52    1
    52    25    26    1
