@<TRIPOS>MOLECULE
ZINC000009134025
 38 40 0 0 0
SMALL
GASTEIGER

@<TRIPOS>ATOM
      1 O           0.0021   -0.0041    0.0020 O.2     1  UNL1       -0.2754
      2 C          -0.0144    1.2086    0.0087 C.2     1  UNL1        0.2182
      3 N           1.1435    1.8983    0.0013 N.am    1  UNL1       -0.2796
      4 C           2.4220    1.1832   -0.0147 C.3     1  UNL1        0.2776
      5 C           2.5588    0.3570   -1.2952 C.3     1  UNL1        0.4365
      6 F           2.4831    1.2034   -2.4066 F       1  UNL1       -0.1662
      7 F           3.7923   -0.3030   -1.2948 F       1  UNL1       -0.1662
      8 F           1.5260   -0.5848   -1.3551 F       1  UNL1       -0.1662
      9 N           3.5453    2.1266    0.1196 N.am    1  UNL1       -0.2632
     10 C           4.1909    1.7974    1.2531 C.2     1  UNL1        0.3110
     11 O           5.1744    2.3812    1.6644 O.2     1  UNL1       -0.2521
     12 N           3.6292    0.7556    1.8769 N.am    1  UNL1       -0.2182
     13 C           4.1229    0.1844    3.1324 C.3     1  UNL1        0.0490
     14 C           3.4588    0.8767    4.2947 C.ar    1  UNL1       -0.0296
     15 C           4.0330    2.0070    4.8457 C.ar    1  UNL1       -0.0571
     16 C           3.4239    2.6420    5.9118 C.ar    1  UNL1       -0.0615
     17 C           2.2403    2.1469    6.4266 C.ar    1  UNL1       -0.0617
     18 C           1.6656    1.0171    5.8750 C.ar    1  UNL1       -0.0615
     19 C           2.2726    0.3846    4.8061 C.ar    1  UNL1       -0.0571
     20 C           2.5528    0.2971    1.2082 C.2     1  UNL1        0.2745
     21 O           1.8374   -0.6306    1.5202 O.2     1  UNL1       -0.2706
     22 C          -1.3296    1.9443    0.0189 C.3     1  UNL1        0.0357
     23 C          -2.1936    1.8643   -1.2412 C.3     1  UNL1       -0.0412
     24 C          -2.6086    1.1047    0.0204 C.3     1  UNL1       -0.0412
     25 H           1.1304    2.8682    0.0067 H       1  UNL1        0.1515
     26 H           3.7751    2.8449   -0.4905 H       1  UNL1        0.1530
     27 H           3.8913   -0.8802    3.1631 H       1  UNL1        0.0519
     28 H           5.2022    0.3234    3.1952 H       1  UNL1        0.0519
     29 H           4.9577    2.3937    4.4435 H       1  UNL1        0.0621
     30 H           3.8728    3.5246    6.3428 H       1  UNL1        0.0618
     31 H           1.7647    2.6426    7.2600 H       1  UNL1        0.0618
     32 H           0.7411    0.6302    6.2774 H       1  UNL1        0.0618
     33 H           1.8236   -0.4980    4.3751 H       1  UNL1        0.0621
     34 H          -1.3407    2.8795    0.5787 H       1  UNL1        0.0394
     35 H          -2.7733    2.7471   -1.5108 H       1  UNL1        0.0273
     36 H          -1.8108    1.2795   -2.0776 H       1  UNL1        0.0273
     37 H          -2.4989    0.0203    0.0140 H       1  UNL1        0.0273
     38 H          -3.4614    1.4878    0.5808 H       1  UNL1        0.0273
@<TRIPOS>BOND
     1     1     2    2
     2     2     3   am
     3     2    22    1
     4     3    25    1
     5     4     3    1
     6     4    20    1
     7     4     5    1
     8     4     9    1
     9     5     6    1
    10     5     7    1
    11     5     8    1
    12     9    10   am
    13     9    26    1
    14    10    11    2
    15    10    12   am
    16    12    13    1
    17    12    20   am
    18    13    14    1
    19    13    27    1
    20    13    28    1
    21    14    19   ar
    22    14    15   ar
    23    15    16   ar
    24    15    29    1
    25    16    17   ar
    26    16    30    1
    27    17    18   ar
    28    17    31    1
    29    18    19   ar
    30    18    32    1
    31    19    33    1
    32    20    21    2
    33    22    24    1
    34    22    23    1
    35    22    34    1
    36    23    24    1
    37    23    35    1
    38    23    36    1
    39    24    37    1
    40    24    38    1
