@<TRIPOS>MOLECULE
ZINC000012922356
 64 66 0 0 0
SMALL
GASTEIGER

@<TRIPOS>ATOM
      1 C           1.2545   -4.2683    0.2554 C.3     1  UNL1       -0.0613
      2 C           1.6354   -2.8513    0.6889 C.3     1  UNL1       -0.0305
      3 C           0.4214   -2.1528    1.2451 C.ar    1  UNL1       -0.0459
      4 C          -0.4054   -1.4306    0.4046 C.ar    1  UNL1       -0.0585
      5 C          -1.5202   -0.7877    0.9112 C.ar    1  UNL1       -0.0597
      6 C          -1.8111   -0.8657    2.2588 C.ar    1  UNL1       -0.0403
      7 C          -0.9828   -1.5907    3.1058 C.ar    1  UNL1        0.0365
      8 N          -1.2750   -1.6720    4.4718 N.am    1  UNL1       -0.2706
      9 C          -0.5316   -2.4986    5.4299 C.3     1  UNL1        0.0313
     10 C          -0.9057   -1.9500    6.8247 C.3     1  UNL1        0.0602
     11 H          -0.1907   -1.1950    7.1516 H       1  UNL1        0.0414
     12 C          -1.0072   -3.0651    7.8333 C.2     1  UNL1        0.2224
     13 O          -0.8028   -4.2112    7.4930 O.2     1  UNL1       -0.2751
     14 N          -1.3252   -2.7889    9.1136 N.am    1  UNL1       -0.2823
     15 C          -1.3032   -3.8068   10.0763 C.ar    1  UNL1        0.0774
     16 C          -0.3694   -4.8283    9.9868 C.ar    1  UNL1       -0.0105
     17 C          -0.3497   -5.8315   10.9376 C.ar    1  UNL1        0.1075
     18 S           0.8374   -7.1285   10.8222 S.O2    1  UNL1        0.0609
     19 O           0.2959   -8.2326   11.5344 O.2     1  UNL1       -0.1528
     20 O           1.2237   -7.1986    9.4566 O.2     1  UNL1       -0.1528
     21 N           2.1784   -6.6419   11.6632 N.3     1  UNL1       -0.1771
     22 C           2.3006   -6.9516   13.0899 C.3     1  UNL1        0.0177
     23 C           3.1076   -8.2396   13.2649 C.3     1  UNL1       -0.0507
     24 C           3.2425   -5.9018   10.9805 C.3     1  UNL1        0.0177
     25 C           3.0249   -4.3999   11.1751 C.3     1  UNL1       -0.0507
     26 C          -1.2587   -5.8195   11.9791 C.ar    1  UNL1       -0.0318
     27 C          -2.1929   -4.8044   12.0746 C.ar    1  UNL1       -0.0163
     28 C          -2.2156   -3.7924   11.1292 C.ar    1  UNL1        0.1413
     29 O          -3.1334   -2.7934   11.2220 O.3     1  UNL1       -0.4933
     30 C          -4.0450   -2.8500   12.3210 C.3     1  UNL1        0.0789
     31 C          -2.2914   -1.3195    6.5543 C.3     1  UNL1        0.0370
     32 C          -2.2691   -0.9986    5.0761 C.2     1  UNL1        0.2206
     33 O          -3.0406   -0.2486    4.5163 O.2     1  UNL1       -0.2752
     34 C           0.1328   -2.2393    2.5932 C.ar    1  UNL1       -0.0371
     35 H           0.4811   -4.2183   -0.5110 H       1  UNL1        0.0233
     36 H           2.1325   -4.7736   -0.1469 H       1  UNL1        0.0233
     37 H           0.8785   -4.8226    1.1153 H       1  UNL1        0.0233
     38 H           2.4088   -2.9014    1.4554 H       1  UNL1        0.0311
     39 H           2.0114   -2.2970   -0.1710 H       1  UNL1        0.0311
     40 H          -0.1800   -1.3682   -0.6498 H       1  UNL1        0.0620
     41 H          -2.1637   -0.2238    0.2521 H       1  UNL1        0.0618
     42 H          -2.6816   -0.3631    2.6539 H       1  UNL1        0.0636
     43 H          -0.8335   -3.5422    5.3416 H       1  UNL1        0.0476
     44 H           0.5407   -2.3998    5.2609 H       1  UNL1        0.0476
     45 H          -1.5692   -1.8854    9.3686 H       1  UNL1        0.1549
     46 H           0.3419   -4.8403    9.1742 H       1  UNL1        0.0657
     47 H           2.8097   -6.1321   13.5972 H       1  UNL1        0.0441
     48 H           1.3075   -7.0838   13.5194 H       1  UNL1        0.0441
     49 H           4.1006   -8.1074   12.8354 H       1  UNL1        0.0243
     50 H           3.1985   -8.4700   14.3264 H       1  UNL1        0.0243
     51 H           2.5985   -9.0591   12.7576 H       1  UNL1        0.0243
     52 H           4.2084   -6.1861   11.3981 H       1  UNL1        0.0441
     53 H           3.2234   -6.1369    9.9163 H       1  UNL1        0.0441
     54 H           3.8166   -3.8493   10.6671 H       1  UNL1        0.0243
     55 H           2.0590   -4.1157   10.7575 H       1  UNL1        0.0243
     56 H           3.0439   -4.1649   12.2393 H       1  UNL1        0.0243
     57 H          -1.2393   -6.6051   12.7199 H       1  UNL1        0.0638
     58 H          -2.9019   -4.7981   12.8893 H       1  UNL1        0.0655
     59 H          -4.6216   -3.7735   12.2676 H       1  UNL1        0.0660
     60 H          -3.4874   -2.8234   13.2573 H       1  UNL1        0.0660
     61 H          -4.7212   -1.9963   12.2765 H       1  UNL1        0.0660
     62 H          -3.0852   -2.0308    6.7822 H       1  UNL1        0.0366
     63 H          -2.4160   -0.4074    7.1380 H       1  UNL1        0.0366
     64 H           0.7789   -2.8038    3.2492 H       1  UNL1        0.0639
@<TRIPOS>BOND
     1     1     2    1
     2     1    35    1
     3     1    36    1
     4     1    37    1
     5     2     3    1
     6     2    38    1
     7     2    39    1
     8     3    34   ar
     9     3     4   ar
    10     4     5   ar
    11     4    40    1
    12     5     6   ar
    13     5    41    1
    14     6     7   ar
    15     6    42    1
    16     7     8    1
    17     7    34   ar
    18     8    32   am
    19     8     9    1
    20     9    10    1
    21     9    43    1
    22     9    44    1
    23    10    11    1
    24    10    12    1
    25    10    31    1
    26    12    13    2
    27    12    14   am
    28    14    15    1
    29    14    45    1
    30    15    28   ar
    31    15    16   ar
    32    16    17   ar
    33    16    46    1
    34    17    18    1
    35    17    26   ar
    36    18    19    2
    37    18    20    2
    38    18    21    1
    39    21    22    1
    40    21    24    1
    41    22    23    1
    42    22    47    1
    43    22    48    1
    44    23    49    1
    45    23    50    1
    46    23    51    1
    47    24    25    1
    48    24    52    1
    49    24    53    1
    50    25    54    1
    51    25    55    1
    52    25    56    1
    53    26    27   ar
    54    26    57    1
    55    27    28   ar
    56    27    58    1
    57    28    29    1
    58    29    30    1
    59    30    59    1
    60    30    60    1
    61    30    61    1
    62    31    32    1
    63    31    62    1
    64    31    63    1
    65    32    33    2
    66    34    64    1
