@<TRIPOS>MOLECULE
ZINC000041129621
 36 37 0 0 0
SMALL
GASTEIGER

@<TRIPOS>ATOM
      1 N          -0.0162    1.3436    0.0094 N.am    1  UNL1       -0.3291
      2 C           0.0021   -0.0041    0.0020 C.2     1  UNL1        0.2151
      3 O           1.0605   -0.5961   -0.0113 O.2     1  UNL1       -0.2757
      4 C          -1.2926   -0.7753    0.0102 C.3     1  UNL1        0.0525
      5 H          -1.9009   -0.5227   -0.8583 H       1  UNL1        0.0410
      6 C          -2.0761   -0.5327    1.3274 C.3     1  UNL1       -0.0246
      7 C          -2.9169   -1.8188    1.4712 C.3     1  UNL1        0.0154
      8 N          -2.2512   -2.8660    0.6827 N.am    1  UNL1       -0.3005
      9 C          -2.6858   -4.1331    0.5341 C.2     1  UNL1        0.2199
     10 O          -2.0534   -4.9155   -0.1433 O.2     1  UNL1       -0.2752
     11 C          -3.9575   -4.5776    1.2095 C.3     1  UNL1        0.0493
     12 C          -4.2182   -6.0262    0.8860 C.ar    1  UNL1       -0.0386
     13 C          -4.9604   -6.3624   -0.2307 C.ar    1  UNL1       -0.0576
     14 C          -5.1996   -7.6911   -0.5274 C.ar    1  UNL1       -0.0499
     15 C          -4.6961   -8.6838    0.2924 C.ar    1  UNL1        0.0548
     16 C          -4.9572  -10.1324   -0.0308 C.3     1  UNL1        0.4174
     17 F          -3.9353  -10.6182   -0.8536 F       1  UNL1       -0.1659
     18 F          -4.9946  -10.8752    1.1541 F       1  UNL1       -0.1659
     19 F          -6.1840  -10.2487   -0.6930 F       1  UNL1       -0.1659
     20 C          -3.9527   -8.3477    1.4083 C.ar    1  UNL1       -0.0499
     21 C          -3.7103   -7.0191    1.7029 C.ar    1  UNL1       -0.0576
     22 C          -1.0301   -2.3003    0.0798 C.3     1  UNL1        0.0258
     23 H           0.8172    1.8399    0.0041 H       1  UNL1        0.1449
     24 H          -0.8627    1.8171    0.0160 H       1  UNL1        0.1449
     25 H          -1.3916   -0.4234    2.1686 H       1  UNL1        0.0288
     26 H          -2.7208    0.3415    1.2372 H       1  UNL1        0.0288
     27 H          -2.9630   -2.1163    2.5187 H       1  UNL1        0.0465
     28 H          -3.9228   -1.6488    1.0873 H       1  UNL1        0.0465
     29 H          -3.8567   -4.4587    2.2883 H       1  UNL1        0.0407
     30 H          -4.7896   -3.9704    0.8532 H       1  UNL1        0.0407
     31 H          -5.3538   -5.5868   -0.8711 H       1  UNL1        0.0621
     32 H          -5.7801   -7.9537   -1.3994 H       1  UNL1        0.0623
     33 H          -3.5590   -9.1233    2.0485 H       1  UNL1        0.0623
     34 H          -3.1295   -6.7565    2.5747 H       1  UNL1        0.0621
     35 H          -0.8778   -2.7061   -0.9204 H       1  UNL1        0.0472
     36 H          -0.1650   -2.5073    0.7098 H       1  UNL1        0.0472
@<TRIPOS>BOND
     1     1     2   am
     2     1    23    1
     3     1    24    1
     4     2     3    2
     5     2     4    1
     6     4     5    1
     7     4    22    1
     8     4     6    1
     9     6     7    1
    10     6    25    1
    11     6    26    1
    12     7     8    1
    13     7    27    1
    14     7    28    1
    15     8     9   am
    16     8    22    1
    17     9    10    2
    18     9    11    1
    19    11    12    1
    20    11    29    1
    21    11    30    1
    22    12    21   ar
    23    12    13   ar
    24    13    14   ar
    25    13    31    1
    26    14    15   ar
    27    14    32    1
    28    15    16    1
    29    15    20   ar
    30    16    17    1
    31    16    18    1
    32    16    19    1
    33    20    21   ar
    34    20    33    1
    35    21    34    1
    36    22    35    1
    37    22    36    1
