@<TRIPOS>MOLECULE
ZINC000408611089
 63 65 0 0 0
SMALL
GASTEIGER

@<TRIPOS>ATOM
      1 C          -9.0402   -6.0417    4.2274 C.3     1  UNL1        0.0788
      2 O          -9.2609   -4.7557    3.6448 O.3     1  UNL1       -0.4951
      3 C          -8.3028   -4.2872    2.8026 C.ar    1  UNL1        0.1202
      4 C          -7.1761   -5.0521    2.5377 C.ar    1  UNL1       -0.0181
      5 C          -6.2038   -4.5739    1.6808 C.ar    1  UNL1       -0.0319
      6 C          -6.3526   -3.3339    1.0876 C.ar    1  UNL1        0.1057
      7 S          -5.1103   -2.7265   -0.0044 S.O2    1  UNL1        0.0616
      8 O          -5.1484   -1.3094    0.0930 O.2     1  UNL1       -0.1528
      9 O          -3.9411   -3.4921    0.2525 O.2     1  UNL1       -0.1528
     10 N          -5.5860   -3.1022   -1.5454 N.3     1  UNL1       -0.1635
     11 C          -5.2904   -4.4250   -2.1013 C.3     1  UNL1        0.0971
     12 C          -6.4771   -5.3316   -1.8991 C.2     1  UNL1        0.2290
     13 O          -7.4719   -4.9139   -1.3452 O.2     1  UNL1       -0.2743
     14 N          -6.4329   -6.6066   -2.3338 N.am    1  UNL1       -0.3116
     15 C          -7.5866   -7.4879   -2.1372 C.3     1  UNL1        0.0206
     16 H          -8.5057   -6.9094   -2.2302 H       1  UNL1        0.0495
     17 C          -7.5175   -8.1151   -0.7434 C.3     1  UNL1       -0.0466
     18 C          -7.5703   -8.5930   -3.1952 C.3     1  UNL1       -0.0308
     19 C          -7.7646   -7.9749   -4.5813 C.3     1  UNL1       -0.0260
     20 C          -7.7486   -9.0634   -5.6234 C.ar    1  UNL1       -0.0473
     21 C          -6.5549   -9.4428   -6.2083 C.ar    1  UNL1       -0.0586
     22 C          -6.5402  -10.4412   -7.1642 C.ar    1  UNL1       -0.0615
     23 C          -7.7191  -11.0607   -7.5348 C.ar    1  UNL1       -0.0617
     24 C          -8.9127  -10.6819   -6.9493 C.ar    1  UNL1       -0.0615
     25 C          -8.9268   -9.6864   -5.9903 C.ar    1  UNL1       -0.0586
     26 C          -6.3025   -2.1118   -2.3529 C.3     1  UNL1        0.0460
     27 C          -5.3245   -1.3823   -3.2373 C.ar    1  UNL1       -0.0317
     28 C          -4.7921   -0.1736   -2.8293 C.ar    1  UNL1       -0.0573
     29 C          -3.8950    0.4956   -3.6406 C.ar    1  UNL1       -0.0615
     30 C          -3.5299   -0.0441   -4.8598 C.ar    1  UNL1       -0.0617
     31 C          -4.0616   -1.2533   -5.2674 C.ar    1  UNL1       -0.0615
     32 C          -4.9555   -1.9245   -4.4542 C.ar    1  UNL1       -0.0573
     33 C          -7.4748   -2.5698    1.3496 C.ar    1  UNL1       -0.0319
     34 C          -8.4524   -3.0458    2.2017 C.ar    1  UNL1       -0.0181
     35 H          -9.8781   -6.2951    4.8769 H       1  UNL1        0.0660
     36 H          -8.9538   -6.7883    3.4379 H       1  UNL1        0.0660
     37 H          -8.1203   -6.0228    4.8118 H       1  UNL1        0.0660
     38 H          -7.0591   -6.0205    3.0013 H       1  UNL1        0.0655
     39 H          -5.3265   -5.1690    1.4743 H       1  UNL1        0.0638
     40 H          -5.0811   -4.3328   -3.1671 H       1  UNL1        0.0539
     41 H          -4.4214   -4.8458   -1.5955 H       1  UNL1        0.0539
     42 H          -5.6373   -6.9407   -2.7768 H       1  UNL1        0.1490
     43 H          -8.3759   -8.7709   -0.5971 H       1  UNL1        0.0247
     44 H          -6.5984   -8.6936   -0.6505 H       1  UNL1        0.0247
     45 H          -7.5291   -7.3278    0.0103 H       1  UNL1        0.0247
     46 H          -6.6139   -9.1148   -3.1609 H       1  UNL1        0.0286
     47 H          -8.3766   -9.2988   -2.9958 H       1  UNL1        0.0286
     48 H          -8.7210   -7.4531   -4.6156 H       1  UNL1        0.0314
     49 H          -6.9583   -7.2691   -4.7807 H       1  UNL1        0.0314
     50 H          -5.6339   -8.9589   -5.9187 H       1  UNL1        0.0620
     51 H          -5.6077  -10.7371   -7.6216 H       1  UNL1        0.0618
     52 H          -7.7077  -11.8402   -8.2822 H       1  UNL1        0.0618
     53 H          -9.8338  -11.1656   -7.2391 H       1  UNL1        0.0618
     54 H          -9.8593   -9.3905   -5.5328 H       1  UNL1        0.0620
     55 H          -7.0455   -2.6158   -2.9710 H       1  UNL1        0.0493
     56 H          -6.8001   -1.3986   -1.6957 H       1  UNL1        0.0493
     57 H          -5.0774    0.2481   -1.8768 H       1  UNL1        0.0621
     58 H          -3.4796    1.4403   -3.3221 H       1  UNL1        0.0618
     59 H          -2.8296    0.4791   -5.4939 H       1  UNL1        0.0618
     60 H          -3.7766   -1.6748   -6.2200 H       1  UNL1        0.0618
     61 H          -5.3709   -2.8692   -4.7726 H       1  UNL1        0.0621
     62 H          -7.5889   -1.6016    0.8848 H       1  UNL1        0.0638
     63 H          -9.3288   -2.4486    2.4060 H       1  UNL1        0.0655
@<TRIPOS>BOND
     1     1     2    1
     2     1    35    1
     3     1    36    1
     4     1    37    1
     5     2     3    1
     6     3    34   ar
     7     3     4   ar
     8     4     5   ar
     9     4    38    1
    10     5     6   ar
    11     5    39    1
    12     6     7    1
    13     6    33   ar
    14     7     8    2
    15     7     9    2
    16     7    10    1
    17    10    11    1
    18    10    26    1
    19    11    12    1
    20    11    40    1
    21    11    41    1
    22    12    13    2
    23    12    14   am
    24    14    15    1
    25    14    42    1
    26    15    16    1
    27    15    17    1
    28    15    18    1
    29    17    43    1
    30    17    44    1
    31    17    45    1
    32    18    19    1
    33    18    46    1
    34    18    47    1
    35    19    20    1
    36    19    48    1
    37    19    49    1
    38    20    25   ar
    39    20    21   ar
    40    21    22   ar
    41    21    50    1
    42    22    23   ar
    43    22    51    1
    44    23    24   ar
    45    23    52    1
    46    24    25   ar
    47    24    53    1
    48    25    54    1
    49    26    27    1
    50    26    55    1
    51    26    56    1
    52    27    32   ar
    53    27    28   ar
    54    28    29   ar
    55    28    57    1
    56    29    30   ar
    57    29    58    1
    58    30    31   ar
    59    30    59    1
    60    31    32   ar
    61    31    60    1
    62    32    61    1
    63    33    34   ar
    64    33    62    1
    65    34    63    1
