@<TRIPOS>MOLECULE
ZINC000012747667
 66 70 0 0 0
SMALL
GASTEIGER

@<TRIPOS>ATOM
      1 C           0.8827    1.2035   -0.3256 C.3     1  UNL1       -0.0409
      2 C           0.0021   -0.0041    0.0020 C.3     1  UNL1        0.0845
      3 H          -1.0337    0.3191    0.1058 H       1  UNL1        0.0556
      4 C           0.4653   -0.6281    1.2932 C.2     1  UNL1        0.2304
      5 O           1.2740   -1.5318    1.2740 O.2     1  UNL1       -0.2741
      6 N          -0.0190   -0.1820    2.4691 N.am    1  UNL1       -0.3085
      7 C           0.4314   -0.7886    3.7243 C.3     1  UNL1        0.0354
      8 C           1.9457   -0.6169    3.8592 C.3     1  UNL1       -0.0287
      9 C           2.4160   -1.2505    5.1700 C.3     1  UNL1       -0.0386
     10 C           2.0698   -2.7408    5.1692 C.3     1  UNL1       -0.0472
     11 C           0.5554   -2.9125    5.0343 C.3     1  UNL1       -0.0386
     12 C          -0.1423   -2.2274    6.2110 C.3     1  UNL1       -0.0472
     13 C           0.2039   -0.7371    6.2118 C.3     1  UNL1       -0.0386
     14 C           1.7183   -0.5654    6.3467 C.3     1  UNL1       -0.0472
     15 C          -0.2664   -0.1035    4.9010 C.3     1  UNL1       -0.0287
     16 C           0.0851   -2.2789    3.7234 C.3     1  UNL1       -0.0287
     17 N           0.1010   -0.9907   -1.0819 N.3     1  UNL1       -0.2892
     18 C          -0.1760   -0.3710   -2.3847 C.3     1  UNL1        0.0141
     19 C           0.1129   -1.3822   -3.4992 C.3     1  UNL1        0.0333
     20 N          -0.6443   -2.6122   -3.2220 N.3     1  UNL1       -0.1741
     21 S          -1.6064   -3.2979   -4.3824 S.O2    1  UNL1        0.0609
     22 O          -2.5763   -4.0740   -3.6924 O.2     1  UNL1       -0.1528
     23 O          -1.9453   -2.2573   -5.2889 O.2     1  UNL1       -0.1528
     24 C          -0.6070   -4.4361   -5.2827 C.ar    1  UNL1        0.1055
     25 C           0.0916   -4.0111   -6.3972 C.ar    1  UNL1       -0.0348
     26 C           0.8757   -4.9041   -7.1035 C.ar    1  UNL1       -0.0483
     27 C           0.9613   -6.2219   -6.6950 C.ar    1  UNL1        0.0549
     28 C           1.8156   -7.1955   -7.4652 C.3     1  UNL1        0.4174
     29 F           3.1129   -7.1934   -6.9415 F       1  UNL1       -0.1659
     30 F           1.2714   -8.4799   -7.3578 F       1  UNL1       -0.1659
     31 F           1.8557   -6.8171   -8.8115 F       1  UNL1       -0.1659
     32 C           0.2637   -6.6466   -5.5797 C.ar    1  UNL1       -0.0483
     33 C          -0.5173   -5.7527   -4.8712 C.ar    1  UNL1       -0.0348
     34 C          -0.5240   -3.2174   -1.8869 C.3     1  UNL1        0.0333
     35 C          -0.7879   -2.1340   -0.8358 C.3     1  UNL1        0.0141
     36 H           1.9185    0.8803   -0.4293 H       1  UNL1        0.0249
     37 H           0.5476    1.6548   -1.2594 H       1  UNL1        0.0249
     38 H           0.8093    1.9355    0.4787 H       1  UNL1        0.0249
     39 H          -0.6657    0.5408    2.4844 H       1  UNL1        0.1493
     40 H           2.4428   -1.1050    3.0208 H       1  UNL1        0.0288
     41 H           2.1924    0.4448    3.8597 H       1  UNL1        0.0288
     42 H           3.4949   -1.1282    5.2661 H       1  UNL1        0.0302
     43 H           2.5669   -3.2288    4.3309 H       1  UNL1        0.0271
     44 H           2.4048   -3.1921    6.1031 H       1  UNL1        0.0271
     45 H           0.3088   -3.9742    5.0337 H       1  UNL1        0.0302
     46 H          -1.2212   -2.3497    6.1149 H       1  UNL1        0.0271
     47 H           0.1927   -2.6788    7.1449 H       1  UNL1        0.0271
     48 H          -0.2932   -0.2490    7.0501 H       1  UNL1        0.0302
     49 H           2.0533   -1.0168    7.2806 H       1  UNL1        0.0271
     50 H           1.9649    0.4963    6.3473 H       1  UNL1        0.0271
     51 H          -0.0197    0.9582    4.9016 H       1  UNL1        0.0288
     52 H          -1.3453   -0.2258    4.8049 H       1  UNL1        0.0288
     53 H          -0.9937   -2.4012    3.6273 H       1  UNL1        0.0288
     54 H           0.5822   -2.7670    2.8851 H       1  UNL1        0.0288
     55 H          -1.2227   -0.0700   -2.4290 H       1  UNL1        0.0440
     56 H           0.4604    0.5044   -2.5138 H       1  UNL1        0.0440
     57 H          -0.1987   -0.9688   -4.4585 H       1  UNL1        0.0456
     58 H           1.1794   -1.6062   -3.5229 H       1  UNL1        0.0456
     59 H           0.0247   -2.9815   -6.7163 H       1  UNL1        0.0637
     60 H           1.4210   -4.5722   -7.9746 H       1  UNL1        0.0624
     61 H           0.3309   -7.6761   -5.2603 H       1  UNL1        0.0624
     62 H          -1.0623   -6.0845   -3.9998 H       1  UNL1        0.0637
     63 H          -1.2567   -4.0173   -1.7801 H       1  UNL1        0.0456
     64 H           0.4812   -3.6179   -1.7556 H       1  UNL1        0.0456
     65 H          -0.5952   -2.5372    0.1584 H       1  UNL1        0.0440
     66 H          -1.8260   -1.8084   -0.9017 H       1  UNL1        0.0440
@<TRIPOS>BOND
     1     1     2    1
     2     1    36    1
     3     1    37    1
     4     1    38    1
     5     2     3    1
     6     2     4    1
     7     2    17    1
     8     4     5    2
     9     4     6   am
    10     6    39    1
    11     7     6    1
    12     7    15    1
    13     7    16    1
    14     7     8    1
    15     8     9    1
    16     8    40    1
    17     8    41    1
    18     9    14    1
    19     9    10    1
    20     9    42    1
    21    10    11    1
    22    10    43    1
    23    10    44    1
    24    11    12    1
    25    11    16    1
    26    11    45    1
    27    12    13    1
    28    12    46    1
    29    12    47    1
    30    13    14    1
    31    13    15    1
    32    13    48    1
    33    14    49    1
    34    14    50    1
    35    15    51    1
    36    15    52    1
    37    16    53    1
    38    16    54    1
    39    17    35    1
    40    17    18    1
    41    18    19    1
    42    18    55    1
    43    18    56    1
    44    19    20    1
    45    19    57    1
    46    19    58    1
    47    21    20    1
    48    20    34    1
    49    21    22    2
    50    21    23    2
    51    21    24    1
    52    24    33   ar
    53    24    25   ar
    54    25    26   ar
    55    25    59    1
    56    26    27   ar
    57    26    60    1
    58    27    28    1
    59    27    32   ar
    60    28    29    1
    61    28    30    1
    62    28    31    1
    63    32    33   ar
    64    32    61    1
    65    33    62    1
    66    34    35    1
    67    34    63    1
    68    34    64    1
    69    35    65    1
    70    35    66    1
