@<TRIPOS>MOLECULE
ZINC000010301528
 61 63 0 0 0
SMALL
GASTEIGER

@<TRIPOS>ATOM
      1 C          -3.7219  -12.3623   -5.0469 C.3     1  UNL1       -0.0307
      2 C          -3.8018  -11.1463   -4.1218 C.3     1  UNL1        0.0868
      3 O          -2.4982  -10.8414   -3.6223 O.3     1  UNL1       -0.4920
      4 C          -2.3929   -9.7803   -2.7797 C.ar    1  UNL1        0.1235
      5 C          -3.5219   -9.0514   -2.4361 C.ar    1  UNL1       -0.0178
      6 C          -3.4124   -7.9733   -1.5789 C.ar    1  UNL1       -0.0319
      7 C          -2.1788   -7.6207   -1.0641 C.ar    1  UNL1        0.1060
      8 S          -2.0423   -6.2450    0.0284 S.O2    1  UNL1        0.0616
      9 O          -0.7022   -5.7835   -0.0730 O.2     1  UNL1       -0.1528
     10 O          -3.1702   -5.4184   -0.2244 O.2     1  UNL1       -0.1528
     11 N          -2.2225   -6.8233    1.5697 N.3     1  UNL1       -0.1635
     12 C          -3.5633   -7.0221    2.1254 C.3     1  UNL1        0.0971
     13 C          -3.9832   -8.4553    1.9237 C.2     1  UNL1        0.2289
     14 O          -3.2360   -9.2340    1.3702 O.2     1  UNL1       -0.2743
     15 N          -5.1891   -8.8718    2.3583 N.am    1  UNL1       -0.3117
     16 C          -5.5973  -10.2650    2.1622 C.3     1  UNL1        0.0379
     17 C          -6.9976  -10.4727    2.7426 C.3     1  UNL1        0.0742
     18 H          -7.0180  -10.1496    3.7834 H       1  UNL1        0.0611
     19 C          -7.3873  -11.9636    2.6494 C.3     1  UNL1       -0.0231
     20 C          -8.8901  -11.8880    2.2648 C.3     1  UNL1       -0.0271
     21 C          -8.9026  -10.6196    1.3750 C.3     1  UNL1        0.0482
     22 O          -7.9543   -9.7250    1.9827 O.3     1  UNL1       -0.3750
     23 C          -1.0410   -7.1360    2.3774 C.3     1  UNL1        0.0460
     24 C          -0.7100   -5.9599    3.2597 C.ar    1  UNL1       -0.0317
     25 C           0.2267   -5.0299    2.8491 C.ar    1  UNL1       -0.0573
     26 C           0.5303   -3.9510    3.6583 C.ar    1  UNL1       -0.0615
     27 C          -0.1031   -3.8020    4.8779 C.ar    1  UNL1       -0.0617
     28 C          -1.0405   -4.7315    5.2881 C.ar    1  UNL1       -0.0615
     29 C          -1.3472   -5.8080    4.4769 C.ar    1  UNL1       -0.0573
     30 C          -1.0518   -8.3460   -1.4047 C.ar    1  UNL1       -0.0290
     31 C          -1.1568   -9.4278   -2.2571 C.ar    1  UNL1       -0.0069
     32 C           0.0717  -10.2181   -2.6275 C.3     1  UNL1       -0.0362
     33 H          -4.7163  -12.5950   -5.4279 H       1  UNL1        0.0262
     34 H          -3.0559  -12.1412   -5.8809 H       1  UNL1        0.0262
     35 H          -3.3367  -13.2171   -4.4910 H       1  UNL1        0.0262
     36 H          -4.1871  -10.2916   -4.6777 H       1  UNL1        0.0694
     37 H          -4.4679  -11.3675   -3.2878 H       1  UNL1        0.0694
     38 H          -4.4858   -9.3260   -2.8386 H       1  UNL1        0.0655
     39 H          -4.2911   -7.4055   -1.3111 H       1  UNL1        0.0638
     40 H          -3.5526   -6.7932    3.1910 H       1  UNL1        0.0539
     41 H          -4.2680   -6.3624    1.6191 H       1  UNL1        0.0539
     42 H          -5.7867   -8.2490    2.8009 H       1  UNL1        0.1488
     43 H          -5.6080  -10.4940    1.0966 H       1  UNL1        0.0487
     44 H          -4.8926  -10.9248    2.6685 H       1  UNL1        0.0487
     45 H          -6.8128  -12.4669    1.8717 H       1  UNL1        0.0291
     46 H          -7.2576  -12.4594    3.6114 H       1  UNL1        0.0291
     47 H          -9.1955  -12.7680    1.6986 H       1  UNL1        0.0288
     48 H          -9.5153  -11.7548    3.1476 H       1  UNL1        0.0288
     49 H          -8.5934  -10.8668    0.3594 H       1  UNL1        0.0560
     50 H          -9.8957  -10.1705    1.3703 H       1  UNL1        0.0560
     51 H          -1.2453   -8.0090    2.9973 H       1  UNL1        0.0493
     52 H          -0.1970   -7.3463    1.7205 H       1  UNL1        0.0493
     53 H           0.7216   -5.1463    1.8962 H       1  UNL1        0.0621
     54 H           1.2627   -3.2248    3.3378 H       1  UNL1        0.0618
     55 H           0.1346   -2.9595    5.5105 H       1  UNL1        0.0618
     56 H          -1.5351   -4.6152    6.2411 H       1  UNL1        0.0618
     57 H          -2.0796   -6.5342    4.7974 H       1  UNL1        0.0621
     58 H          -0.0892   -8.0688   -1.0010 H       1  UNL1        0.0641
     59 H           0.2122  -11.0280   -1.9117 H       1  UNL1        0.0279
     60 H          -0.0518  -10.6343   -3.6274 H       1  UNL1        0.0279
     61 H           0.9432   -9.5638   -2.6115 H       1  UNL1        0.0279
@<TRIPOS>BOND
     1     1     2    1
     2     1    33    1
     3     1    34    1
     4     1    35    1
     5     2     3    1
     6     2    36    1
     7     2    37    1
     8     3     4    1
     9     4    31   ar
    10     4     5   ar
    11     5     6   ar
    12     5    38    1
    13     6     7   ar
    14     6    39    1
    15     7     8    1
    16     7    30   ar
    17     8     9    2
    18     8    10    2
    19     8    11    1
    20    11    12    1
    21    11    23    1
    22    12    13    1
    23    12    40    1
    24    12    41    1
    25    13    14    2
    26    13    15   am
    27    15    16    1
    28    15    42    1
    29    16    17    1
    30    16    43    1
    31    16    44    1
    32    17    18    1
    33    17    22    1
    34    17    19    1
    35    19    20    1
    36    19    45    1
    37    19    46    1
    38    20    21    1
    39    20    47    1
    40    20    48    1
    41    21    22    1
    42    21    49    1
    43    21    50    1
    44    23    24    1
    45    23    51    1
    46    23    52    1
    47    24    29   ar
    48    24    25   ar
    49    25    26   ar
    50    25    53    1
    51    26    27   ar
    52    26    54    1
    53    27    28   ar
    54    27    55    1
    55    28    29   ar
    56    28    56    1
    57    29    57    1
    58    30    31   ar
    59    30    58    1
    60    31    32    1
    61    32    59    1
    62    32    60    1
    63    32    61    1
