@<TRIPOS>MOLECULE
ZINC000024685905
 40 41 0 0 0
SMALL
GASTEIGER

@<TRIPOS>ATOM
      1 C          -0.8469    1.3856   -1.1946 C.3     1  UNL1        0.0001
      2 N          -0.7589   -0.0767   -1.1797 N.am    1  UNL1       -0.3170
      3 C           0.4424   -0.6785   -1.0736 C.2     1  UNL1        0.2317
      4 O           1.4505   -0.0095   -0.9906 O.2     1  UNL1       -0.2740
      5 C           0.5328   -2.1827   -1.0583 C.3     1  UNL1        0.1077
      6 H          -0.4687   -2.6084   -0.9965 H       1  UNL1        0.0575
      7 C           1.3586   -2.6352    0.1500 C.3     1  UNL1       -0.0272
      8 C           1.5642   -4.1503    0.0838 C.3     1  UNL1       -0.0499
      9 C           2.3353   -4.5070   -1.1891 C.3     1  UNL1       -0.0385
     10 C           1.5206   -4.0757   -2.4126 C.3     1  UNL1        0.0213
     11 N           1.1914   -2.6491   -2.2861 N.3     1  UNL1       -0.1647
     12 S           1.5613   -1.5868   -3.5015 S.O2    1  UNL1        0.0615
     13 O           1.4562   -2.3154   -4.7170 O.2     1  UNL1       -0.1528
     14 O           0.8210   -0.4027   -3.2387 O.2     1  UNL1       -0.1528
     15 C           3.2615   -1.1607   -3.3223 C.ar    1  UNL1        0.1060
     16 C           3.6245   -0.0810   -2.5394 C.ar    1  UNL1       -0.0353
     17 C           4.9587    0.2534   -2.3988 C.ar    1  UNL1       -0.0594
     18 C           5.9294   -0.4923   -3.0406 C.ar    1  UNL1       -0.0500
     19 C           5.5664   -1.5729   -3.8229 C.ar    1  UNL1        0.0567
     20 C           6.6248   -2.3856   -4.5231 C.3     1  UNL1        0.4175
     21 F           7.8870   -1.8575   -4.2318 F       1  UNL1       -0.1659
     22 F           6.5613   -3.7121   -4.0829 F       1  UNL1       -0.1659
     23 F           6.4084   -2.3419   -5.9046 F       1  UNL1       -0.1659
     24 C           4.2329   -1.9098   -3.9601 C.ar    1  UNL1       -0.0237
     25 H          -0.4337    1.7839   -0.2679 H       1  UNL1        0.0426
     26 H          -0.2817    1.7750   -2.0413 H       1  UNL1        0.0426
     27 H          -1.8907    1.6859   -1.2856 H       1  UNL1        0.0426
     28 H          -1.5653   -0.6118   -1.2461 H       1  UNL1        0.1484
     29 H           2.3273   -2.1357    0.1363 H       1  UNL1        0.0286
     30 H           0.8299   -2.3796    1.0683 H       1  UNL1        0.0286
     31 H           2.1305   -4.4783    0.9554 H       1  UNL1        0.0266
     32 H           0.5946   -4.6482    0.0726 H       1  UNL1        0.0266
     33 H           3.2948   -3.9899   -1.1902 H       1  UNL1        0.0278
     34 H           2.5017   -5.5837   -1.2239 H       1  UNL1        0.0278
     35 H           2.1069   -4.2368   -3.3173 H       1  UNL1        0.0444
     36 H           0.6004   -4.6578   -2.4626 H       1  UNL1        0.0444
     37 H           2.8660    0.5017   -2.0379 H       1  UNL1        0.0637
     38 H           5.2423    1.0975   -1.7877 H       1  UNL1        0.0618
     39 H           6.9715   -0.2307   -2.9313 H       1  UNL1        0.0623
     40 H           3.9493   -2.7539   -4.5712 H       1  UNL1        0.0642
@<TRIPOS>BOND
     1     1     2    1
     2     1    25    1
     3     1    26    1
     4     1    27    1
     5     2     3   am
     6     2    28    1
     7     3     4    2
     8     3     5    1
     9     5     6    1
    10     5    11    1
    11     5     7    1
    12     7     8    1
    13     7    29    1
    14     7    30    1
    15     8     9    1
    16     8    31    1
    17     8    32    1
    18     9    10    1
    19     9    33    1
    20     9    34    1
    21    10    11    1
    22    10    35    1
    23    10    36    1
    24    12    11    1
    25    12    13    2
    26    12    14    2
    27    12    15    1
    28    15    24   ar
    29    15    16   ar
    30    16    17   ar
    31    16    37    1
    32    17    18   ar
    33    17    38    1
    34    18    19   ar
    35    18    39    1
    36    19    20    1
    37    19    24   ar
    38    20    21    1
    39    20    22    1
    40    20    23    1
    41    24    40    1
