@<TRIPOS>MOLECULE
ZINC000067338662
 43 44 0 0 0
SMALL
GASTEIGER

@<TRIPOS>ATOM
      1 C           0.2268    1.1230   -0.6735 C.3     1  UNL1       -0.0362
      2 C           0.1724   -0.3491   -0.2602 C.3     1  UNL1        0.1190
      3 H          -0.8662   -0.6777   -0.2225 H       1  UNL1        0.0611
      4 C           0.9265   -1.1812   -1.2651 C.2     1  UNL1        0.2376
      5 O           2.0370   -1.5914   -1.0015 O.2     1  UNL1       -0.2735
      6 N           0.3668   -1.4696   -2.4568 N.am    1  UNL1       -0.2999
      7 C          -0.9996   -1.1173   -2.8695 C.3     1  UNL1        0.0148
      8 C          -1.2050   -1.6715   -4.2950 C.3     1  UNL1       -0.0357
      9 C          -0.1391   -2.7952   -4.3879 C.3     1  UNL1       -0.0357
     10 C           1.0256   -2.1850   -3.5648 C.3     1  UNL1        0.0148
     11 N           0.7831   -0.5080    1.0619 N.pl3   1  UNL1       -0.1960
     12 C           2.0799   -0.0434    1.2926 C.ar    1  UNL1        0.0522
     13 C           2.3291    1.3215    1.3570 C.ar    1  UNL1       -0.0390
     14 C           3.6127    1.7775    1.5857 C.ar    1  UNL1       -0.0594
     15 C           4.6489    0.8771    1.7504 C.ar    1  UNL1       -0.0500
     16 C           4.4043   -0.4827    1.6864 C.ar    1  UNL1        0.0566
     17 C           5.5369   -1.4604    1.8666 C.3     1  UNL1        0.4175
     18 F           6.7280   -0.7595    2.0837 F       1  UNL1       -0.1659
     19 F           5.2724   -2.2827    2.9671 F       1  UNL1       -0.1659
     20 F           5.6615   -2.2467    0.7162 F       1  UNL1       -0.1659
     21 C           3.1225   -0.9455    1.4638 C.ar    1  UNL1       -0.0274
     22 S          -0.0642   -1.2384    2.2830 S.O2    1  UNL1        0.0432
     23 C           0.4119   -2.9859    2.1819 C.3     1  UNL1        0.0738
     24 O           0.4515   -0.6489    3.4687 O.2     1  UNL1       -0.1552
     25 O          -1.4261   -1.0704    1.9138 O.2     1  UNL1       -0.1552
     26 H           1.2660    1.4481   -0.7237 H       1  UNL1        0.0253
     27 H          -0.2392    1.2432   -1.6515 H       1  UNL1        0.0253
     28 H          -0.3076    1.7264    0.0602 H       1  UNL1        0.0253
     29 H          -1.7207   -1.5695   -2.1885 H       1  UNL1        0.0464
     30 H          -1.1182   -0.0338   -2.8723 H       1  UNL1        0.0464
     31 H          -2.2085   -2.0816   -4.4085 H       1  UNL1        0.0281
     32 H          -1.0165   -0.8986   -5.0401 H       1  UNL1        0.0281
     33 H          -0.5024   -3.7168   -3.9332 H       1  UNL1        0.0281
     34 H           0.1618   -2.9638   -5.4219 H       1  UNL1        0.0281
     35 H           1.6031   -1.4942   -4.1792 H       1  UNL1        0.0464
     36 H           1.6679   -2.9740   -3.1737 H       1  UNL1        0.0464
     37 H           1.5202    2.0254    1.2281 H       1  UNL1        0.0636
     38 H           3.8072    2.8387    1.6356 H       1  UNL1        0.0618
     39 H           5.6516    1.2363    1.9291 H       1  UNL1        0.0623
     40 H           2.9322   -2.0074    1.4139 H       1  UNL1        0.0642
     41 H           1.4989   -3.0664    2.1730 H       1  UNL1        0.0482
     42 H           0.0150   -3.5211    3.0444 H       1  UNL1        0.0482
     43 H           0.0079   -3.4202    1.2673 H       1  UNL1        0.0482
@<TRIPOS>BOND
     1     1     2    1
     2     1    26    1
     3     1    27    1
     4     1    28    1
     5     2     3    1
     6     2     4    1
     7     2    11    1
     8     4     5    2
     9     4     6   am
    10     6    10    1
    11     6     7    1
    12     7     8    1
    13     7    29    1
    14     7    30    1
    15     8     9    1
    16     8    31    1
    17     8    32    1
    18     9    10    1
    19     9    33    1
    20     9    34    1
    21    10    35    1
    22    10    36    1
    23    11    12    1
    24    22    11    1
    25    12    21   ar
    26    12    13   ar
    27    13    14   ar
    28    13    37    1
    29    14    15   ar
    30    14    38    1
    31    15    16   ar
    32    15    39    1
    33    16    17    1
    34    16    21   ar
    35    17    18    1
    36    17    19    1
    37    17    20    1
    38    21    40    1
    39    22    23    1
    40    22    24    2
    41    22    25    2
    42    23    41    1
    43    23    42    1
    44    23    43    1
