@<TRIPOS>MOLECULE
ZINC000584887901
 40 40 0 0 0
SMALL
GASTEIGER

@<TRIPOS>ATOM
      1 C           0.4825    1.0920    0.3335 C.3     1  UNL1       -0.0625
      2 C           0.1094   -0.3870    0.2139 C.3     1  UNL1       -0.0209
      3 C          -1.4127   -0.5248    0.1415 C.3     1  UNL1        0.1339
      4 H          -1.7932    0.0772   -0.6836 H       1  UNL1        0.0693
      5 O          -1.9907   -0.0723    1.3675 O.3     1  UNL1       -0.3706
      6 C          -2.7679    1.1200    1.2385 C.3     1  UNL1        0.0374
      7 C          -1.7761   -1.9702   -0.0818 C.2     1  UNL1        0.2445
      8 O          -2.3852   -2.5810    0.7707 O.2     1  UNL1       -0.2728
      9 N          -1.4244   -2.5840   -1.2290 N.am    1  UNL1       -0.2966
     10 C          -0.6886   -1.8461   -2.2588 C.3     1  UNL1        0.0036
     11 C          -1.7777   -3.9891   -1.4461 C.3     1  UNL1        0.0566
     12 C          -3.1274   -4.0705   -2.1115 C.ar    1  UNL1        0.0591
     13 C          -3.2052   -4.1844   -3.4865 C.ar    1  UNL1       -0.0359
     14 C          -4.4520   -4.2591   -4.0889 C.ar    1  UNL1       -0.0470
     15 C          -4.5795   -4.3844   -5.5852 C.3     1  UNL1       -0.0396
     16 C          -5.5783   -4.2164   -3.2818 C.ar    1  UNL1       -0.0377
     17 C          -5.4223   -4.1014   -1.9132 C.ar    1  UNL1        0.0388
     18 C          -6.6397   -4.0545   -1.0262 C.3     1  UNL1       -0.0223
     19 N          -4.2205   -4.0379   -1.3744 N.ar    1  UNL1       -0.2552
     20 H           1.5677    1.1937    0.3381 H       1  UNL1        0.0231
     21 H           0.0698    1.6404   -0.5133 H       1  UNL1        0.0231
     22 H           0.0758    1.4954    1.2608 H       1  UNL1        0.0231
     23 H           0.5552   -0.8022   -0.6900 H       1  UNL1        0.0292
     24 H           0.4822   -0.9273    1.0841 H       1  UNL1        0.0292
     25 H          -2.1216    1.9439    0.9359 H       1  UNL1        0.0524
     26 H          -3.5416    0.9696    0.4856 H       1  UNL1        0.0524
     27 H          -3.2332    1.3558    2.1956 H       1  UNL1        0.0524
     28 H           0.3825   -1.9526   -2.0868 H       1  UNL1        0.0429
     29 H          -0.9402   -2.2452   -3.2414 H       1  UNL1        0.0429
     30 H          -0.9606   -0.7915   -2.2144 H       1  UNL1        0.0429
     31 H          -1.0289   -4.4575   -2.0848 H       1  UNL1        0.0529
     32 H          -1.8132   -4.5071   -0.4878 H       1  UNL1        0.0529
     33 H          -2.3063   -4.2144   -4.0844 H       1  UNL1        0.0639
     34 H          -4.5894   -5.4386   -5.8621 H       1  UNL1        0.0278
     35 H          -5.5072   -3.9144   -5.9115 H       1  UNL1        0.0278
     36 H          -3.7340   -3.8908   -6.0645 H       1  UNL1        0.0278
     37 H          -6.5652   -4.2718   -3.7169 H       1  UNL1        0.0638
     38 H          -6.9118   -5.0672   -0.7287 H       1  UNL1        0.0292
     39 H          -6.4196   -3.4618   -0.1383 H       1  UNL1        0.0292
     40 H          -7.4681   -3.6005   -1.5699 H       1  UNL1        0.0292
@<TRIPOS>BOND
     1     1     2    1
     2     1    20    1
     3     1    21    1
     4     1    22    1
     5     2     3    1
     6     2    23    1
     7     2    24    1
     8     3     4    1
     9     3     5    1
    10     3     7    1
    11     5     6    1
    12     6    25    1
    13     6    26    1
    14     6    27    1
    15     7     8    2
    16     7     9   am
    17     9    10    1
    18     9    11    1
    19    10    28    1
    20    10    29    1
    21    10    30    1
    22    11    12    1
    23    11    31    1
    24    11    32    1
    25    12    19   ar
    26    12    13   ar
    27    13    14   ar
    28    13    33    1
    29    14    15    1
    30    14    16   ar
    31    15    34    1
    32    15    35    1
    33    15    36    1
    34    16    17   ar
    35    16    37    1
    36    17    18    1
    37    17    19   ar
    38    18    38    1
    39    18    39    1
    40    18    40    1
