@<TRIPOS>MOLECULE
ZINC000015541118
 50 52 0 0 0
SMALL
GASTEIGER

@<TRIPOS>ATOM
      1 C          -0.0062    1.3804    0.0837 C.3     1  UNL1       -0.0379
      2 C           0.0203   -0.1260    0.0504 C.ar    1  UNL1       -0.0241
      3 C          -0.0433   -0.7892   -1.1620 C.ar    1  UNL1       -0.0563
      4 C          -0.0195   -2.1683   -1.1995 C.ar    1  UNL1       -0.0493
      5 C           0.0689   -2.8942   -0.0107 C.ar    1  UNL1        0.0389
      6 C           0.0953   -4.3717   -0.0434 C.2     1  UNL1        0.2483
      7 O           0.1723   -5.0014    0.9936 O.2     1  UNL1       -0.2699
      8 N           0.0340   -5.0209   -1.2230 N.am    1  UNL1       -0.2815
      9 C          -0.0506   -6.4165   -1.2494 C.ar    1  UNL1        0.0337
     10 C           0.5673   -7.1321   -2.2669 C.ar    1  UNL1       -0.0399
     11 C           0.4818   -8.5103   -2.2902 C.ar    1  UNL1       -0.0484
     12 C          -0.2185   -9.1779   -1.3021 C.ar    1  UNL1        0.0549
     13 C          -0.3096  -10.6819   -1.3307 C.3     1  UNL1        0.4174
     14 F           0.7613  -11.2277   -0.6148 F       1  UNL1       -0.1659
     15 F          -1.5151  -11.0871   -0.7476 F       1  UNL1       -0.1659
     16 F          -0.2598  -11.1270   -2.6560 F       1  UNL1       -0.1659
     17 C          -0.8348   -8.4685   -0.2877 C.ar    1  UNL1       -0.0484
     18 C          -0.7480   -7.0905   -0.2552 C.ar    1  UNL1       -0.0399
     19 C           0.1327   -2.2186    1.2094 C.ar    1  UNL1       -0.0230
     20 C           0.1137   -0.8396    1.2324 C.ar    1  UNL1        0.1091
     21 S           0.1947    0.0150    2.7711 S.O2    1  UNL1        0.0611
     22 O          -0.7839    1.0436    2.7108 O.2     1  UNL1       -0.1528
     23 O           0.2130   -0.9820    3.7834 O.2     1  UNL1       -0.1528
     24 N           1.6660    0.7725    2.8343 N.3     1  UNL1       -0.1766
     25 C           2.8595    0.0522    3.2984 C.3     1  UNL1        0.0205
     26 C           3.9560    0.1790    2.2362 C.3     1  UNL1       -0.0385
     27 C           4.1949    1.6592    1.9295 C.3     1  UNL1       -0.0506
     28 C           2.9110    2.2806    1.3748 C.3     1  UNL1       -0.0385
     29 C           1.8038    2.1758    2.4215 C.3     1  UNL1        0.0205
     30 H           1.0142    1.7607    0.1331 H       1  UNL1        0.0278
     31 H          -0.4904    1.7553   -0.8180 H       1  UNL1        0.0278
     32 H          -0.5613    1.7147    0.9601 H       1  UNL1        0.0278
     33 H          -0.1120   -0.2263   -2.0811 H       1  UNL1        0.0621
     34 H          -0.0696   -2.6848   -2.1467 H       1  UNL1        0.0625
     35 H           0.0485   -4.5200   -2.0535 H       1  UNL1        0.1551
     36 H           1.1137   -6.6112   -3.0393 H       1  UNL1        0.0636
     37 H           0.9621   -9.0673   -3.0811 H       1  UNL1        0.0624
     38 H          -1.3812   -8.9928    0.4823 H       1  UNL1        0.0624
     39 H          -1.2292   -6.5371    0.5376 H       1  UNL1        0.0636
     40 H           0.2011   -2.7745    2.1328 H       1  UNL1        0.0645
     41 H           3.2069    0.4865    4.2358 H       1  UNL1        0.0444
     42 H           2.6161   -0.9996    3.4486 H       1  UNL1        0.0444
     43 H           4.8773   -0.2685    2.6092 H       1  UNL1        0.0278
     44 H           3.6433   -0.3351    1.3273 H       1  UNL1        0.0278
     45 H           4.4836    2.1775    2.8438 H       1  UNL1        0.0266
     46 H           4.9919    1.7532    1.1919 H       1  UNL1        0.0266
     47 H           3.0885    3.3289    1.1347 H       1  UNL1        0.0278
     48 H           2.6081    1.7468    0.4740 H       1  UNL1        0.0278
     49 H           0.8638    2.5268    1.9954 H       1  UNL1        0.0444
     50 H           2.0629    2.7822    3.2894 H       1  UNL1        0.0444
@<TRIPOS>BOND
     1     1     2    1
     2     1    30    1
     3     1    31    1
     4     1    32    1
     5     2    20   ar
     6     2     3   ar
     7     3     4   ar
     8     3    33    1
     9     4     5   ar
    10     4    34    1
    11     5     6    1
    12     5    19   ar
    13     6     7    2
    14     6     8   am
    15     8     9    1
    16     8    35    1
    17     9    18   ar
    18     9    10   ar
    19    10    11   ar
    20    10    36    1
    21    11    12   ar
    22    11    37    1
    23    12    13    1
    24    12    17   ar
    25    13    14    1
    26    13    15    1
    27    13    16    1
    28    17    18   ar
    29    17    38    1
    30    18    39    1
    31    19    20   ar
    32    19    40    1
    33    20    21    1
    34    21    22    2
    35    21    23    2
    36    21    24    1
    37    24    29    1
    38    24    25    1
    39    25    26    1
    40    25    41    1
    41    25    42    1
    42    26    27    1
    43    26    43    1
    44    26    44    1
    45    27    28    1
    46    27    45    1
    47    27    46    1
    48    28    29    1
    49    28    47    1
    50    28    48    1
    51    29    49    1
    52    29    50    1
