@<TRIPOS>MOLECULE
ZINC000408603493
 40 40 0 0 0
SMALL
GASTEIGER

@<TRIPOS>ATOM
      1 C          -0.0187    1.5258    0.0104 C.3     1  UNL1       -0.0507
      2 C           0.0021   -0.0041    0.0020 C.3     1  UNL1        0.0177
      3 N           0.7106   -0.4894    1.1889 N.3     1  UNL1       -0.1771
      4 C          -0.0062   -0.6460    2.4569 C.3     1  UNL1        0.0177
      5 C          -0.6935   -2.0126    2.4888 C.3     1  UNL1       -0.0507
      6 S           2.3218   -0.8609    1.0971 S.O2    1  UNL1        0.0608
      7 O           2.5823   -1.7795    2.1496 O.2     1  UNL1       -0.1528
      8 O           2.5905   -1.1471   -0.2686 O.2     1  UNL1       -0.1528
      9 C           3.2182    0.6060    1.4837 C.ar    1  UNL1        0.1057
     10 C           3.5682    1.4865    0.4768 C.ar    1  UNL1       -0.0319
     11 C           4.2709    2.6372    0.7772 C.ar    1  UNL1       -0.0181
     12 C           4.6251    2.9093    2.0907 C.ar    1  UNL1        0.1213
     13 O           5.3160    4.0409    2.3889 O.3     1  UNL1       -0.4828
     14 C           5.6468    4.2561    3.7624 C.3     1  UNL1        0.1651
     15 C           6.4063    5.5505    3.8993 C.2     1  UNL1        0.2504
     16 O           6.6411    6.2226    2.9174 O.2     1  UNL1       -0.2721
     17 N           6.8245    5.9613    5.1129 N.am    1  UNL1       -0.3156
     18 C           7.5628    7.2197    5.2460 C.3     1  UNL1        0.0002
     19 C           4.2723    2.0244    3.0993 C.ar    1  UNL1       -0.0181
     20 C           3.5654    0.8775    2.7942 C.ar    1  UNL1       -0.0319
     21 H           1.0039    1.9031    0.0027 H       1  UNL1        0.0243
     22 H          -0.5459    1.8868   -0.8726 H       1  UNL1        0.0243
     23 H          -0.5289    1.8773    0.9072 H       1  UNL1        0.0243
     24 H          -1.0205   -0.3814    0.0098 H       1  UNL1        0.0441
     25 H           0.5123   -0.3556   -0.8948 H       1  UNL1        0.0441
     26 H           0.6997   -0.5749    3.2845 H       1  UNL1        0.0441
     27 H          -0.7557    0.1399    2.5501 H       1  UNL1        0.0441
     28 H           0.0560   -2.7985    2.3957 H       1  UNL1        0.0243
     29 H          -1.2268   -2.1291    3.4323 H       1  UNL1        0.0243
     30 H          -1.3993   -2.0837    1.6613 H       1  UNL1        0.0243
     31 H           3.2922    1.2742   -0.5456 H       1  UNL1        0.0638
     32 H           4.5447    3.3243   -0.0097 H       1  UNL1        0.0655
     33 H           4.7320    4.3074    4.3527 H       1  UNL1        0.0795
     34 H           6.2647    3.4327    4.1206 H       1  UNL1        0.0795
     35 H           6.6366    5.4238    5.8982 H       1  UNL1        0.1485
     36 H           6.9449    8.0431    4.8878 H       1  UNL1        0.0426
     37 H           7.8151    7.3838    6.2936 H       1  UNL1        0.0426
     38 H           8.4776    7.1684    4.6557 H       1  UNL1        0.0426
     39 H           4.5471    2.2339    4.1225 H       1  UNL1        0.0655
     40 H           3.2902    0.1885    3.5791 H       1  UNL1        0.0638
@<TRIPOS>BOND
     1     1     2    1
     2     1    21    1
     3     1    22    1
     4     1    23    1
     5     2     3    1
     6     2    24    1
     7     2    25    1
     8     3     4    1
     9     6     3    1
    10     4     5    1
    11     4    26    1
    12     4    27    1
    13     5    28    1
    14     5    29    1
    15     5    30    1
    16     6     7    2
    17     6     8    2
    18     6     9    1
    19     9    20   ar
    20     9    10   ar
    21    10    11   ar
    22    10    31    1
    23    11    12   ar
    24    11    32    1
    25    12    13    1
    26    12    19   ar
    27    13    14    1
    28    14    15    1
    29    14    33    1
    30    14    34    1
    31    15    16    2
    32    15    17   am
    33    17    18    1
    34    17    35    1
    35    18    36    1
    36    18    37    1
    37    18    38    1
    38    19    20   ar
    39    19    39    1
    40    20    40    1
