@<TRIPOS>MOLECULE
ZINC000016084488
 54 56 0 0 0
SMALL
GASTEIGER

@<TRIPOS>ATOM
      1 C          -0.5918    1.8342    0.8664 C.3     1  UNL1        0.0817
      2 O          -0.4107    0.4176    0.6042 O.3     1  UNL1       -0.4679
      3 C          -1.5149   -0.3454    0.5891 C.2     1  UNL1        0.3087
      4 O          -2.6044    0.1663    0.6949 O.2     1  UNL1       -0.2508
      5 C          -1.3959   -1.8403    0.4402 C.3     1  UNL1        0.0662
      6 C          -2.7918   -2.4523    0.3068 C.3     1  UNL1        0.0672
      7 H          -3.4537   -2.0121    1.0526 H       1  UNL1        0.0535
      8 C          -2.7096   -3.9424    0.5259 C.ar    1  UNL1       -0.0212
      9 C          -2.0107   -4.3940    1.6374 C.ar    1  UNL1       -0.0113
     10 C          -1.9072   -5.7478    1.9002 C.ar    1  UNL1        0.1618
     11 O          -1.2196   -6.1829    2.9898 O.3     1  UNL1       -0.4914
     12 C          -0.6269   -5.1853    3.8238 C.3     1  UNL1        0.0790
     13 C          -2.5110   -6.6619    1.0420 C.ar    1  UNL1        0.1618
     14 O          -2.4210   -7.9958    1.2914 O.3     1  UNL1       -0.4914
     15 C          -3.0659   -8.8736    0.3665 C.3     1  UNL1        0.0790
     16 C          -3.2023   -6.2073   -0.0655 C.ar    1  UNL1       -0.0128
     17 C          -3.2991   -4.8463   -0.3300 C.ar    1  UNL1       -0.0377
     18 C          -4.0453   -4.4297   -1.5704 C.3     1  UNL1       -0.0128
     19 C          -4.4791   -2.9677   -1.4791 C.3     1  UNL1        0.0252
     20 N          -3.3182   -2.1792   -1.0347 N.3     1  UNL1       -0.1684
     21 S          -2.6346   -1.0284   -2.0097 S.O2    1  UNL1        0.0614
     22 O          -3.5903    0.0166   -2.1279 O.2     1  UNL1       -0.1528
     23 O          -1.3150   -0.8234   -1.5242 O.2     1  UNL1       -0.1528
     24 C          -2.4699   -1.7358   -3.6150 C.ar    1  UNL1        0.1055
     25 C          -1.3667   -2.5116   -3.9185 C.ar    1  UNL1       -0.0348
     26 C          -1.2375   -3.0666   -5.1780 C.ar    1  UNL1       -0.0483
     27 C          -2.2115   -2.8462   -6.1337 C.ar    1  UNL1        0.0549
     28 C          -2.0704   -3.4509   -7.5069 C.3     1  UNL1        0.4174
     29 F          -2.6705   -4.7145   -7.5239 F       1  UNL1       -0.1659
     30 F          -2.6960   -2.6248   -8.4468 F       1  UNL1       -0.1659
     31 F          -0.7136   -3.5746   -7.8247 F       1  UNL1       -0.1659
     32 C          -3.3153   -2.0715   -5.8298 C.ar    1  UNL1       -0.0483
     33 C          -3.4465   -1.5197   -4.5692 C.ar    1  UNL1       -0.0348
     34 H           0.3824    2.3179    0.9377 H       1  UNL1        0.0661
     35 H          -1.1623    2.2840    0.0539 H       1  UNL1        0.0661
     36 H          -1.1315    1.9639    1.8045 H       1  UNL1        0.0661
     37 H          -0.8113   -2.0714   -0.4502 H       1  UNL1        0.0397
     38 H          -0.9000   -2.2546    1.3181 H       1  UNL1        0.0397
     39 H          -1.5438   -3.6821    2.3020 H       1  UNL1        0.0659
     40 H          -0.1102   -5.6662    4.6544 H       1  UNL1        0.0660
     41 H           0.0860   -4.6016    3.2415 H       1  UNL1        0.0660
     42 H          -1.4044   -4.5272    4.2117 H       1  UNL1        0.0660
     43 H          -4.1328   -8.6522    0.3389 H       1  UNL1        0.0660
     44 H          -2.6396   -8.7319   -0.6266 H       1  UNL1        0.0660
     45 H          -2.9172   -9.9064    0.6817 H       1  UNL1        0.0660
     46 H          -3.6711   -6.9165   -0.7317 H       1  UNL1        0.0658
     47 H          -3.3982   -4.5581   -2.4381 H       1  UNL1        0.0326
     48 H          -4.9278   -5.0589   -1.6862 H       1  UNL1        0.0326
     49 H          -4.8090   -2.6191   -2.4577 H       1  UNL1        0.0447
     50 H          -5.2908   -2.8682   -0.7585 H       1  UNL1        0.0447
     51 H          -0.6057   -2.6838   -3.1718 H       1  UNL1        0.0637
     52 H          -0.3753   -3.6722   -5.4153 H       1  UNL1        0.0624
     53 H          -4.0765   -1.8996   -6.5764 H       1  UNL1        0.0624
     54 H          -4.3089   -0.9144   -4.3317 H       1  UNL1        0.0637
@<TRIPOS>BOND
     1     1     2    1
     2     1    34    1
     3     1    35    1
     4     1    36    1
     5     2     3    1
     6     3     4    2
     7     3     5    1
     8     5     6    1
     9     5    37    1
    10     5    38    1
    11     6     7    1
    12     6    20    1
    13     6     8    1
    14     8    17   ar
    15     8     9   ar
    16     9    10   ar
    17     9    39    1
    18    10    11    1
    19    10    13   ar
    20    11    12    1
    21    12    40    1
    22    12    41    1
    23    12    42    1
    24    13    14    1
    25    13    16   ar
    26    14    15    1
    27    15    43    1
    28    15    44    1
    29    15    45    1
    30    16    17   ar
    31    16    46    1
    32    17    18    1
    33    18    19    1
    34    18    47    1
    35    18    48    1
    36    19    20    1
    37    19    49    1
    38    19    50    1
    39    21    20    1
    40    21    22    2
    41    21    23    2
    42    21    24    1
    43    24    33   ar
    44    24    25   ar
    45    25    26   ar
    46    25    51    1
    47    26    27   ar
    48    26    52    1
    49    27    28    1
    50    27    32   ar
    51    28    29    1
    52    28    30    1
    53    28    31    1
    54    32    33   ar
    55    32    53    1
    56    33    54    1
