@<TRIPOS>MOLECULE
ZINC000009365371
 34 35 0 0 0
SMALL
GASTEIGER

@<TRIPOS>ATOM
      1 N          -0.0162    1.3436    0.0094 N.am    1  UNL1       -0.3280
      2 C           0.0021   -0.0041    0.0020 C.2     1  UNL1        0.2294
      3 O           1.0605   -0.5961   -0.0113 O.2     1  UNL1       -0.2743
      4 C          -1.2926   -0.7753    0.0102 C.3     1  UNL1        0.1076
      5 H          -1.8872   -0.5105   -0.8641 H       1  UNL1        0.0575
      6 C          -2.0832   -0.4599    1.2975 C.3     1  UNL1       -0.0260
      7 C          -2.6970   -1.8343    1.6738 C.3     1  UNL1       -0.0366
      8 C          -1.5701   -2.8064    1.2441 C.3     1  UNL1        0.0214
      9 N          -1.0147   -2.2190    0.0074 N.3     1  UNL1       -0.1647
     10 S          -0.2123   -3.0492   -1.1796 S.O2    1  UNL1        0.0615
     11 O           0.5976   -2.0982   -1.8571 O.2     1  UNL1       -0.1528
     12 O           0.3110   -4.2197   -0.5670 O.2     1  UNL1       -0.1528
     13 C          -1.4191   -3.5932   -2.3425 C.ar    1  UNL1        0.1055
     14 C          -2.0339   -4.8203   -2.1777 C.ar    1  UNL1       -0.0348
     15 C          -2.9807   -5.2472   -3.0900 C.ar    1  UNL1       -0.0483
     16 C          -3.3130   -4.4467   -4.1669 C.ar    1  UNL1        0.0549
     17 C          -4.3448   -4.9122   -5.1617 C.3     1  UNL1        0.4174
     18 F          -5.6128   -4.4856   -4.7526 F       1  UNL1       -0.1659
     19 F          -4.0553   -4.3741   -6.4202 F       1  UNL1       -0.1659
     20 F          -4.3242   -6.3091   -5.2358 F       1  UNL1       -0.1659
     21 C          -2.6992   -3.2190   -4.3310 C.ar    1  UNL1       -0.0483
     22 C          -1.7552   -2.7905   -3.4165 C.ar    1  UNL1       -0.0348
     23 H           0.8172    1.8399    0.0041 H       1  UNL1        0.1450
     24 H          -0.8627    1.8171    0.0160 H       1  UNL1        0.1450
     25 H          -1.4154   -0.1076    2.0837 H       1  UNL1        0.0286
     26 H          -2.8669    0.2713    1.0995 H       1  UNL1        0.0286
     27 H          -2.8814   -1.8995    2.7461 H       1  UNL1        0.0279
     28 H          -3.6108   -2.0217    1.1098 H       1  UNL1        0.0279
     29 H          -0.8030   -2.8630    2.0164 H       1  UNL1        0.0444
     30 H          -1.9795   -3.7961    1.0417 H       1  UNL1        0.0444
     31 H          -1.7742   -5.4457   -1.3363 H       1  UNL1        0.0637
     32 H          -3.4605   -6.2062   -2.9616 H       1  UNL1        0.0624
     33 H          -2.9591   -2.5935   -5.1721 H       1  UNL1        0.0624
     34 H          -1.2757   -1.8313   -3.5447 H       1  UNL1        0.0637
@<TRIPOS>BOND
     1     1     2   am
     2     1    23    1
     3     1    24    1
     4     2     3    2
     5     2     4    1
     6     4     5    1
     7     4     9    1
     8     4     6    1
     9     6     7    1
    10     6    25    1
    11     6    26    1
    12     7     8    1
    13     7    27    1
    14     7    28    1
    15     8     9    1
    16     8    29    1
    17     8    30    1
    18    10     9    1
    19    10    11    2
    20    10    12    2
    21    10    13    1
    22    13    22   ar
    23    13    14   ar
    24    14    15   ar
    25    14    31    1
    26    15    16   ar
    27    15    32    1
    28    16    17    1
    29    16    21   ar
    30    17    18    1
    31    17    19    1
    32    17    20    1
    33    21    22   ar
    34    21    33    1
    35    22    34    1
