@<TRIPOS>MOLECULE
ZINC000169350751
 61 63 0 0 0
SMALL
GASTEIGER

@<TRIPOS>ATOM
      1 C           0.3513    1.4946   -0.0026 C.3     1  UNL1       -0.0409
      2 C           0.0371   -0.0026    0.0204 C.3     1  UNL1        0.0846
      3 H           0.3886   -0.4332    0.9580 H       1  UNL1        0.0556
      4 C          -1.4515   -0.2053   -0.0987 C.2     1  UNL1        0.2325
      5 O          -1.9490   -0.4230   -1.1831 O.2     1  UNL1       -0.2739
      6 N          -2.2298   -0.1448    0.9999 N.am    1  UNL1       -0.2997
      7 C          -1.6328    0.0209    2.3322 C.3     1  UNL1        0.0173
      8 C          -2.2866    1.2239    3.0193 C.3     1  UNL1       -0.0278
      9 H          -2.0360    2.1343    2.4748 H       1  UNL1        0.0313
     10 C          -1.7744    1.3313    4.4570 C.3     1  UNL1       -0.0610
     11 C          -3.8055    1.0368    3.0301 C.3     1  UNL1       -0.0450
     12 C          -4.3222    0.9626    1.5914 C.3     1  UNL1       -0.0278
     13 H          -5.4067    0.8528    1.5996 H       1  UNL1        0.0313
     14 C          -3.9443    2.2443    0.8463 C.3     1  UNL1       -0.0610
     15 C          -3.6919   -0.2373    0.8875 C.3     1  UNL1        0.0173
     16 N           0.7127   -0.6621   -1.1050 N.3     1  UNL1       -0.2892
     17 C           0.3772   -2.0914   -1.1560 C.3     1  UNL1        0.0141
     18 C           0.9509   -2.7019   -2.4391 C.3     1  UNL1        0.0333
     19 N           2.3888   -2.3981   -2.4987 N.3     1  UNL1       -0.1741
     20 S           3.5005   -3.5966   -2.7631 S.O2    1  UNL1        0.0609
     21 O           4.7312   -3.1271   -2.2300 O.2     1  UNL1       -0.1528
     22 O           2.8876   -4.8105   -2.3506 O.2     1  UNL1       -0.1528
     23 C           3.7284   -3.7214   -4.5058 C.ar    1  UNL1        0.1055
     24 C           2.9311   -4.5725   -5.2480 C.ar    1  UNL1       -0.0348
     25 C           3.1099   -4.6704   -6.6152 C.ar    1  UNL1       -0.0483
     26 C           4.0858   -3.9169   -7.2403 C.ar    1  UNL1        0.0549
     27 C           4.2811   -4.0240   -8.7308 C.3     1  UNL1        0.4174
     28 F           3.4715   -3.0829   -9.3760 F       1  UNL1       -0.1659
     29 F           5.6222   -3.7784   -9.0442 F       1  UNL1       -0.1659
     30 F           3.9308   -5.3100   -9.1558 F       1  UNL1       -0.1659
     31 C           4.8823   -3.0648   -6.4983 C.ar    1  UNL1       -0.0483
     32 C           4.7009   -2.9641   -5.1316 C.ar    1  UNL1       -0.0348
     33 C           2.8130   -1.0015   -2.3177 C.3     1  UNL1        0.0333
     34 C           2.1659   -0.4579   -1.0394 C.3     1  UNL1        0.0141
     35 H           1.4159    1.6452    0.1767 H       1  UNL1        0.0249
     36 H           0.0849    1.9068   -0.9759 H       1  UNL1        0.0249
     37 H          -0.2229    1.9984    0.7748 H       1  UNL1        0.0249
     38 H          -1.8065   -0.8773    2.9247 H       1  UNL1        0.0467
     39 H          -0.5612    0.1944    2.2334 H       1  UNL1        0.0467
     40 H          -0.6923    1.4619    4.4484 H       1  UNL1        0.0233
     41 H          -2.2399    2.1874    4.9455 H       1  UNL1        0.0233
     42 H          -2.0262    0.4212    5.0014 H       1  UNL1        0.0233
     43 H          -4.0539    0.1134    3.5532 H       1  UNL1        0.0271
     44 H          -4.2716    1.8797    3.5403 H       1  UNL1        0.0271
     45 H          -2.8598    2.3531    0.8374 H       1  UNL1        0.0233
     46 H          -4.3126    2.1910   -0.1782 H       1  UNL1        0.0233
     47 H          -4.3914    3.1020    1.3489 H       1  UNL1        0.0233
     48 H          -3.9796   -0.2367   -0.1638 H       1  UNL1        0.0467
     49 H          -4.0314   -1.1585    1.3610 H       1  UNL1        0.0467
     50 H           0.8049   -2.5965   -0.2900 H       1  UNL1        0.0440
     51 H          -0.7062   -2.2111   -1.1490 H       1  UNL1        0.0440
     52 H           0.8051   -3.7820   -2.4277 H       1  UNL1        0.0456
     53 H           0.4494   -2.2710   -3.3056 H       1  UNL1        0.0456
     54 H           2.1686   -5.1611   -4.7596 H       1  UNL1        0.0637
     55 H           2.4874   -5.3358   -7.1949 H       1  UNL1        0.0624
     56 H           5.6445   -2.4759   -6.9868 H       1  UNL1        0.0624
     57 H           5.3231   -2.2984   -4.5519 H       1  UNL1        0.0637
     58 H           3.8982   -0.9574   -2.2261 H       1  UNL1        0.0456
     59 H           2.4905   -0.4071   -3.1726 H       1  UNL1        0.0456
     60 H           2.3798    0.6070   -0.9479 H       1  UNL1        0.0440
     61 H           2.5688   -0.9858   -0.1750 H       1  UNL1        0.0440
@<TRIPOS>BOND
     1     1     2    1
     2     1    35    1
     3     1    36    1
     4     1    37    1
     5     2     3    1
     6     2     4    1
     7     2    16    1
     8     4     5    2
     9     4     6   am
    10     6    15    1
    11     6     7    1
    12     7     8    1
    13     7    38    1
    14     7    39    1
    15     8     9    1
    16     8    10    1
    17     8    11    1
    18    10    40    1
    19    10    41    1
    20    10    42    1
    21    11    12    1
    22    11    43    1
    23    11    44    1
    24    12    13    1
    25    12    14    1
    26    12    15    1
    27    14    45    1
    28    14    46    1
    29    14    47    1
    30    15    48    1
    31    15    49    1
    32    16    34    1
    33    16    17    1
    34    17    18    1
    35    17    50    1
    36    17    51    1
    37    18    19    1
    38    18    52    1
    39    18    53    1
    40    20    19    1
    41    19    33    1
    42    20    21    2
    43    20    22    2
    44    20    23    1
    45    23    32   ar
    46    23    24   ar
    47    24    25   ar
    48    24    54    1
    49    25    26   ar
    50    25    55    1
    51    26    27    1
    52    26    31   ar
    53    27    28    1
    54    27    29    1
    55    27    30    1
    56    31    32   ar
    57    31    56    1
    58    32    57    1
    59    33    34    1
    60    33    58    1
    61    33    59    1
    62    34    60    1
    63    34    61    1
