@<TRIPOS>MOLECULE
ZINC000000924344
 54 56 0 0 0
SMALL
GASTEIGER

@<TRIPOS>ATOM
      1 C          -8.1212   -6.3287    4.1947 C.3     1  UNL1        0.0790
      2 O          -8.5300   -5.0796    3.6338 O.3     1  UNL1       -0.4915
      3 C          -7.6715   -4.4828    2.7642 C.ar    1  UNL1        0.1615
      4 C          -6.4653   -5.0890    2.4535 C.ar    1  UNL1       -0.0160
      5 C          -5.5936   -4.4811    1.5687 C.ar    1  UNL1       -0.0536
      6 C          -5.9226   -3.2685    0.9930 C.ar    1  UNL1       -0.0280
      7 C          -4.9688   -2.6101    0.0298 C.3     1  UNL1        0.0457
      8 N          -5.3543   -2.9433   -1.3438 N.3     1  UNL1       -0.1698
      9 C          -4.9086   -4.2028   -1.9447 C.3     1  UNL1        0.0471
     10 C          -5.8759   -5.3231   -1.5573 C.3     1  UNL1        0.0731
     11 H          -5.9789   -5.3640   -0.4729 H       1  UNL1        0.0609
     12 C          -5.3495   -6.6752   -2.0847 C.3     1  UNL1       -0.0233
     13 C          -6.6536   -7.3764   -2.5533 C.3     1  UNL1       -0.0271
     14 C          -7.4734   -6.1637   -3.0612 C.3     1  UNL1        0.0482
     15 O          -7.1549   -5.0903   -2.1585 O.3     1  UNL1       -0.3752
     16 S          -6.2940   -1.8961   -2.2172 S.O2    1  UNL1        0.0612
     17 O          -7.0096   -2.6869   -3.1562 O.2     1  UNL1       -0.1528
     18 O          -6.9297   -1.0449   -1.2734 O.2     1  UNL1       -0.1528
     19 C          -5.2051   -0.8752   -3.1536 C.ar    1  UNL1        0.1055
     20 C          -4.8168    0.3560   -2.6554 C.ar    1  UNL1       -0.0346
     21 C          -3.9647    1.1604   -3.3829 C.ar    1  UNL1       -0.0458
     22 C          -3.4936    0.7294   -4.6256 C.ar    1  UNL1        0.0633
     23 C          -2.5815    1.5840   -5.4095 C.2     1  UNL1        0.3865
     24 O          -2.2361    2.6724   -4.9719 O.co2   1  UNL1       -0.2406
     25 O          -2.1709    1.2039   -6.4969 O.co2   1  UNL1       -0.2406
     26 C          -3.8900   -0.5149   -5.1223 C.ar    1  UNL1       -0.0458
     27 C          -4.7380   -1.3111   -4.3812 C.ar    1  UNL1       -0.0346
     28 C          -7.1253   -2.6582    1.2985 C.ar    1  UNL1       -0.0118
     29 C          -8.0053   -3.2644    2.1799 C.ar    1  UNL1        0.1618
     30 O          -9.1885   -2.6655    2.4814 O.3     1  UNL1       -0.4914
     31 C          -9.4597   -1.4114    1.8525 C.3     1  UNL1        0.0790
     32 H          -8.8952   -6.6947    4.8693 H       1  UNL1        0.0660
     33 H          -7.9646   -7.0524    3.3948 H       1  UNL1        0.0660
     34 H          -7.1921   -6.1918    4.7480 H       1  UNL1        0.0660
     35 H          -6.2055   -6.0363    2.9026 H       1  UNL1        0.0655
     36 H          -4.6535   -4.9547    1.3273 H       1  UNL1        0.0622
     37 H          -5.0042   -1.5291    0.1650 H       1  UNL1        0.0493
     38 H          -3.9565   -2.9670    0.2197 H       1  UNL1        0.0493
     39 H          -4.8872   -4.1002   -3.0296 H       1  UNL1        0.0469
     40 H          -3.9092   -4.4444   -1.5828 H       1  UNL1        0.0469
     41 H          -4.6671   -6.5261   -2.9215 H       1  UNL1        0.0291
     42 H          -4.8692   -7.2422   -1.2873 H       1  UNL1        0.0291
     43 H          -6.4527   -8.0806   -3.3607 H       1  UNL1        0.0288
     44 H          -7.1557   -7.8691   -1.7207 H       1  UNL1        0.0288
     45 H          -7.1762   -5.9050   -4.0775 H       1  UNL1        0.0560
     46 H          -8.5400   -6.3853   -3.0229 H       1  UNL1        0.0560
     47 H          -5.1820    0.6880   -1.6948 H       1  UNL1        0.0637
     48 H          -3.6627    2.1212   -2.9930 H       1  UNL1        0.0626
     49 H          -3.5300   -0.8542   -6.0823 H       1  UNL1        0.0626
     50 H          -5.0453   -2.2731   -4.7638 H       1  UNL1        0.0637
     51 H          -7.3800   -1.7106    0.8472 H       1  UNL1        0.0658
     52 H          -9.4646   -1.5412    0.7702 H       1  UNL1        0.0660
     53 H         -10.4328   -1.0442    2.1787 H       1  UNL1        0.0660
     54 H          -8.6887   -0.6921    2.1287 H       1  UNL1        0.0660
@<TRIPOS>BOND
     1     1     2    1
     2     1    32    1
     3     1    33    1
     4     1    34    1
     5     2     3    1
     6     3    29   ar
     7     3     4   ar
     8     4     5   ar
     9     4    35    1
    10     5     6   ar
    11     5    36    1
    12     6     7    1
    13     6    28   ar
    14     7     8    1
    15     7    37    1
    16     7    38    1
    17     8     9    1
    18    16     8    1
    19     9    10    1
    20     9    39    1
    21     9    40    1
    22    10    11    1
    23    10    15    1
    24    10    12    1
    25    12    13    1
    26    12    41    1
    27    12    42    1
    28    13    14    1
    29    13    43    1
    30    13    44    1
    31    14    15    1
    32    14    45    1
    33    14    46    1
    34    16    17    2
    35    16    18    2
    36    16    19    1
    37    19    27   ar
    38    19    20   ar
    39    20    21   ar
    40    20    47    1
    41    21    22   ar
    42    21    48    1
    43    22    23    1
    44    22    26   ar
    45    23    24   ar
    46    23    25   ar
    47    26    27   ar
    48    26    49    1
    49    27    50    1
    50    28    29   ar
    51    28    51    1
    52    29    30    1
    53    30    31    1
    54    31    52    1
    55    31    53    1
    56    31    54    1
