@<TRIPOS>MOLECULE
ZINC000072354603
 42 44 0 0 0
SMALL
GASTEIGER

@<TRIPOS>ATOM
      1 C          -0.0184    1.5028    0.0103 C.3     1  UNL1        0.0124
      2 C           0.0021   -0.0041    0.0020 C.2     1  UNL1        0.2130
      3 O           1.0605   -0.5961   -0.0113 O.2     1  UNL1       -0.2759
      4 N          -1.1558   -0.6938    0.0094 N.am    1  UNL1       -0.2931
      5 C          -2.5070   -0.1042    0.0190 C.3     1  UNL1        0.0154
      6 C          -3.4130   -1.1990    0.6356 C.3     1  UNL1       -0.0351
      7 C          -2.7874   -2.4902    0.0449 C.3     1  UNL1       -0.0273
      8 C          -1.2807   -2.1587    0.0027 C.3     1  UNL1        0.0689
      9 H          -0.7854   -2.5720    0.8813 H       1  UNL1        0.0566
     10 C          -0.6650   -2.7299   -1.2486 C.ar    1  UNL1        0.0744
     11 N          -0.8699   -2.1535   -2.4195 N.ar    1  UNL1       -0.2172
     12 C          -0.3319   -2.6491   -3.5249 C.ar    1  UNL1        0.2128
     13 N          -0.5704   -2.0154   -4.7313 N.pl3   1  UNL1       -0.3275
     14 N           0.4284   -3.7343   -3.5068 N.ar    1  UNL1       -0.2225
     15 C           0.6797   -4.3673   -2.3744 C.ar    1  UNL1        0.0407
     16 C           0.1355   -3.8736   -1.1862 C.ar    1  UNL1        0.0235
     17 C           0.3923   -4.5526    0.1078 C.ar    1  UNL1       -0.0146
     18 C           0.8262   -3.8175    1.2093 C.ar    1  UNL1       -0.0534
     19 C           1.0631   -4.4541    2.4107 C.ar    1  UNL1       -0.0495
     20 C           0.8710   -5.8194    2.5225 C.ar    1  UNL1        0.0548
     21 C           1.1313   -6.5089    3.8370 C.3     1  UNL1        0.4174
     22 F          -0.0414   -6.5168    4.5997 F       1  UNL1       -0.1659
     23 F           1.5423   -7.8250    3.5998 F       1  UNL1       -0.1659
     24 F           2.1348   -5.8250    4.5316 F       1  UNL1       -0.1659
     25 C           0.4404   -6.5540    1.4324 C.ar    1  UNL1       -0.0495
     26 C           0.1950   -5.9268    0.2278 C.ar    1  UNL1       -0.0534
     27 H           1.0042    1.8801    0.0026 H       1  UNL1        0.0323
     28 H          -0.5455    1.8639   -0.8728 H       1  UNL1        0.0323
     29 H          -0.5286    1.8543    0.9071 H       1  UNL1        0.0323
     30 H          -2.5245    0.7943    0.6358 H       1  UNL1        0.0465
     31 H          -2.8278    0.1258   -0.9970 H       1  UNL1        0.0465
     32 H          -3.3458   -1.1947    1.7235 H       1  UNL1        0.0281
     33 H          -4.4462   -1.0808    0.3091 H       1  UNL1        0.0281
     34 H          -2.9787   -3.3438    0.6951 H       1  UNL1        0.0287
     35 H          -3.1657   -2.6771   -0.9601 H       1  UNL1        0.0287
     36 H          -1.1247   -1.2199   -4.7600 H       1  UNL1        0.1452
     37 H          -0.1834   -2.3666   -5.5485 H       1  UNL1        0.1452
     38 H           1.3003   -5.2511   -2.3669 H       1  UNL1        0.0837
     39 H           0.9771   -2.7516    1.1228 H       1  UNL1        0.0624
     40 H           1.3994   -3.8854    3.2650 H       1  UNL1        0.0623
     41 H           0.2921   -7.6197    1.5253 H       1  UNL1        0.0623
     42 H          -0.1412   -6.5013   -0.6227 H       1  UNL1        0.0624
@<TRIPOS>BOND
     1     1     2    1
     2     1    27    1
     3     1    28    1
     4     1    29    1
     5     2     3    2
     6     2     4   am
     7     4     8    1
     8     4     5    1
     9     5     6    1
    10     5    30    1
    11     5    31    1
    12     6     7    1
    13     6    32    1
    14     6    33    1
    15     7     8    1
    16     7    34    1
    17     7    35    1
    18     8     9    1
    19     8    10    1
    20    10    16   ar
    21    10    11   ar
    22    11    12   ar
    23    12    13    1
    24    12    14   ar
    25    13    36    1
    26    13    37    1
    27    14    15   ar
    28    15    16   ar
    29    15    38    1
    30    16    17    1
    31    17    26   ar
    32    17    18   ar
    33    18    19   ar
    34    18    39    1
    35    19    20   ar
    36    19    40    1
    37    20    21    1
    38    20    25   ar
    39    21    22    1
    40    21    23    1
    41    21    24    1
    42    25    26   ar
    43    25    41    1
    44    26    42    1
