@<TRIPOS>MOLECULE
ZINC000013117956
 61 63 0 0 0
SMALL
GASTEIGER

@<TRIPOS>ATOM
      1 C          -0.2868    1.3711   -0.6192 C.3     1  UNL1       -0.0409
      2 C          -0.0004    0.0021    0.0010 C.3     1  UNL1        0.0846
      3 H           0.5647    0.1324    0.9239 H       1  UNL1        0.0556
      4 C           0.8021   -0.8296   -0.9662 C.2     1  UNL1        0.2325
      5 O           0.2694   -1.7312   -1.5778 O.2     1  UNL1       -0.2739
      6 N           2.1119   -0.5714   -1.1514 N.am    1  UNL1       -0.2997
      7 C           2.7489    0.5773   -0.4930 C.3     1  UNL1        0.0173
      8 C           3.9760    0.0843    0.2802 C.3     1  UNL1       -0.0278
      9 H           3.6564   -0.5722    1.0895 H       1  UNL1        0.0313
     10 C           4.7285    1.2827    0.8618 C.3     1  UNL1       -0.0610
     11 C           4.8966   -0.6861   -0.6691 C.3     1  UNL1       -0.0450
     12 C           4.1549   -1.9037   -1.2254 C.3     1  UNL1       -0.0278
     13 H           4.8187   -2.4648   -1.8831 H       1  UNL1        0.0313
     14 C           3.7046   -2.7993   -0.0695 C.3     1  UNL1       -0.0610
     15 C           2.9312   -1.4367   -2.0109 C.3     1  UNL1        0.0173
     16 N          -1.2691   -0.6773    0.2954 N.3     1  UNL1       -0.2892
     17 C          -2.1808   -0.6115   -0.8546 C.3     1  UNL1        0.0141
     18 C          -3.4119   -1.4805   -0.5766 C.3     1  UNL1        0.0333
     19 N          -3.9980   -1.0636    0.7063 N.3     1  UNL1       -0.1741
     20 S          -5.6105   -0.7065    0.8281 S.O2    1  UNL1        0.0609
     21 O          -5.7477    0.1518    1.9522 O.2     1  UNL1       -0.1528
     22 O          -6.0426   -0.3514   -0.4782 O.2     1  UNL1       -0.1528
     23 C          -6.4463   -2.2022    1.2392 C.ar    1  UNL1        0.1055
     24 C          -6.9104   -3.0327    0.2363 C.ar    1  UNL1       -0.0348
     25 C          -7.5662   -4.2061    0.5589 C.ar    1  UNL1       -0.0483
     26 C          -7.7573   -4.5492    1.8842 C.ar    1  UNL1        0.0549
     27 C          -8.4726   -5.8282    2.2359 C.3     1  UNL1        0.4174
     28 F          -7.5429   -6.8679    2.3440 F       1  UNL1       -0.1659
     29 F          -9.1389   -5.6697    3.4557 F       1  UNL1       -0.1659
     30 F          -9.4001   -6.1343    1.2342 F       1  UNL1       -0.1659
     31 C          -7.2920   -3.7194    2.8871 C.ar    1  UNL1       -0.0483
     32 C          -6.6329   -2.5479    2.5646 C.ar    1  UNL1       -0.0348
     33 C          -3.1141   -0.9726    1.8784 C.3     1  UNL1        0.0333
     34 C          -1.8947   -0.1236    1.5038 C.3     1  UNL1        0.0141
     35 H           0.6493    1.9138   -0.7500 H       1  UNL1        0.0249
     36 H          -0.7678    1.2375   -1.5882 H       1  UNL1        0.0249
     37 H          -0.9462    1.9372    0.0387 H       1  UNL1        0.0249
     38 H           3.0581    1.3039   -1.2444 H       1  UNL1        0.0467
     39 H           2.0436    1.0401    0.1973 H       1  UNL1        0.0467
     40 H           4.0713    1.8322    1.5358 H       1  UNL1        0.0233
     41 H           5.6015    0.9315    1.4119 H       1  UNL1        0.0233
     42 H           5.0489    1.9383    0.0521 H       1  UNL1        0.0233
     43 H           5.1959   -0.0363   -1.4914 H       1  UNL1        0.0271
     44 H           5.7824   -1.0169   -0.1270 H       1  UNL1        0.0271
     45 H           3.0400   -2.2382    0.5873 H       1  UNL1        0.0233
     46 H           3.1765   -3.6664   -0.4662 H       1  UNL1        0.0233
     47 H           4.5767   -3.1315    0.4938 H       1  UNL1        0.0233
     48 H           2.3465   -2.3015   -2.3245 H       1  UNL1        0.0467
     49 H           3.2525   -0.8731   -2.8868 H       1  UNL1        0.0467
     50 H          -2.4925    0.4209   -1.0129 H       1  UNL1        0.0440
     51 H          -1.6701   -0.9783   -1.7450 H       1  UNL1        0.0440
     52 H          -4.1427   -1.3459   -1.3740 H       1  UNL1        0.0456
     53 H          -3.1157   -2.5280   -0.5206 H       1  UNL1        0.0456
     54 H          -6.7611   -2.7647   -0.7991 H       1  UNL1        0.0637
     55 H          -7.9294   -4.8547   -0.2246 H       1  UNL1        0.0624
     56 H          -7.4411   -3.9876    3.9226 H       1  UNL1        0.0624
     57 H          -6.2694   -1.8995    3.3481 H       1  UNL1        0.0637
     58 H          -3.6481   -0.5023    2.7041 H       1  UNL1        0.0456
     59 H          -2.7893   -1.9713    2.1704 H       1  UNL1        0.0456
     60 H          -1.1766   -0.1367    2.3237 H       1  UNL1        0.0440
     61 H          -2.2104    0.9020    1.3125 H       1  UNL1        0.0440
@<TRIPOS>BOND
     1     1     2    1
     2     1    35    1
     3     1    36    1
     4     1    37    1
     5     2     3    1
     6     2     4    1
     7     2    16    1
     8     4     5    2
     9     4     6   am
    10     6    15    1
    11     6     7    1
    12     7     8    1
    13     7    38    1
    14     7    39    1
    15     8     9    1
    16     8    10    1
    17     8    11    1
    18    10    40    1
    19    10    41    1
    20    10    42    1
    21    11    12    1
    22    11    43    1
    23    11    44    1
    24    12    13    1
    25    12    14    1
    26    12    15    1
    27    14    45    1
    28    14    46    1
    29    14    47    1
    30    15    48    1
    31    15    49    1
    32    16    34    1
    33    16    17    1
    34    17    18    1
    35    17    50    1
    36    17    51    1
    37    18    19    1
    38    18    52    1
    39    18    53    1
    40    20    19    1
    41    19    33    1
    42    20    21    2
    43    20    22    2
    44    20    23    1
    45    23    32   ar
    46    23    24   ar
    47    24    25   ar
    48    24    54    1
    49    25    26   ar
    50    25    55    1
    51    26    27    1
    52    26    31   ar
    53    27    28    1
    54    27    29    1
    55    27    30    1
    56    31    32   ar
    57    31    56    1
    58    32    57    1
    59    33    34    1
    60    33    58    1
    61    33    59    1
    62    34    60    1
    63    34    61    1
