@<TRIPOS>MOLECULE
ZINC000012850790
 49 51 0 0 0
SMALL
GASTEIGER

@<TRIPOS>ATOM
      1 C          -0.0184    1.5028    0.0103 C.3     1  UNL1       -0.0171
      2 C           0.0021   -0.0041    0.0020 C.ar    1  UNL1        0.1071
      3 N           0.0084   -0.7781   -1.0446 N.ar    1  UNL1       -0.0813
      4 O           0.0260   -1.9466   -0.7340 O.2     1  UNL1       -0.3576
      5 C           0.0337   -2.1026    0.5973 C.ar    1  UNL1        0.1607
      6 C           0.0555   -3.4063    1.3528 C.3     1  UNL1       -0.0017
      7 C           0.0244   -0.8570    1.1293 C.ar    1  UNL1        0.1696
      8 S           0.0281   -0.4046    2.8322 S.O2    1  UNL1        0.0666
      9 O          -0.5285    0.9011    2.9018 O.2     1  UNL1       -0.1527
     10 O          -0.5024   -1.5145    3.5435 O.2     1  UNL1       -0.1527
     11 N           1.6108   -0.2636    3.2985 N.3     1  UNL1       -0.1646
     12 C           2.4464   -1.3498    3.8421 C.3     1  UNL1        0.0214
     13 C           3.9029   -0.9223    3.5328 C.3     1  UNL1       -0.0366
     14 C           3.8293    0.6126    3.7472 C.3     1  UNL1       -0.0260
     15 C           2.4173    0.9639    3.2331 C.3     1  UNL1        0.1078
     16 H           2.4754    1.3208    2.2048 H       1  UNL1        0.0575
     17 C           1.8020    2.0243    4.1094 C.2     1  UNL1        0.2322
     18 O           0.7802    1.7894    4.7190 O.2     1  UNL1       -0.2740
     19 N           2.3871    3.2338    4.2155 N.am    1  UNL1       -0.3099
     20 C           1.7888    4.2647    5.0674 C.3     1  UNL1        0.0369
     21 C           2.6309    5.5132    5.0117 C.ar    1  UNL1       -0.0303
     22 C           3.6654    5.6899    5.9114 C.ar    1  UNL1       -0.0565
     23 C           4.4378    6.8351    5.8604 C.ar    1  UNL1       -0.0498
     24 C           4.1760    7.8036    4.9093 C.ar    1  UNL1        0.0548
     25 C           5.0178    9.0524    4.8540 C.3     1  UNL1        0.4174
     26 F           6.1074    8.8429    4.0019 F       1  UNL1       -0.1659
     27 F           4.2455   10.1143    4.3712 F       1  UNL1       -0.1659
     28 F           5.4819    9.3592    6.1376 F       1  UNL1       -0.1659
     29 C           3.1424    7.6263    4.0088 C.ar    1  UNL1       -0.0498
     30 C           2.3724    6.4793    4.0574 C.ar    1  UNL1       -0.0565
     31 H           1.0042    1.8801    0.0026 H       1  UNL1        0.0294
     32 H          -0.5455    1.8639   -0.8728 H       1  UNL1        0.0294
     33 H          -0.5286    1.8543    0.9071 H       1  UNL1        0.0294
     34 H           0.0639   -4.2359    0.6459 H       1  UNL1        0.0309
     35 H           0.9490   -3.4505    1.9755 H       1  UNL1        0.0309
     36 H          -0.8308   -3.4755    1.9836 H       1  UNL1        0.0309
     37 H           2.2980   -1.4404    4.9181 H       1  UNL1        0.0444
     38 H           2.2140   -2.2919    3.3456 H       1  UNL1        0.0444
     39 H           4.6017   -1.3814    4.2321 H       1  UNL1        0.0279
     40 H           4.1698   -1.1606    2.5032 H       1  UNL1        0.0279
     41 H           3.9314    0.8597    4.8039 H       1  UNL1        0.0286
     42 H           4.5903    1.1216    3.1556 H       1  UNL1        0.0286
     43 H           3.2042    3.4218    3.7279 H       1  UNL1        0.1491
     44 H           0.7825    4.4891    4.7139 H       1  UNL1        0.0512
     45 H           1.7411    3.9042    6.0949 H       1  UNL1        0.0512
     46 H           3.8700    4.9333    6.6545 H       1  UNL1        0.0621
     47 H           5.2456    6.9735    6.5637 H       1  UNL1        0.0623
     48 H           2.9380    8.3828    3.2655 H       1  UNL1        0.0623
     49 H           1.5648    6.3408    3.3538 H       1  UNL1        0.0621
@<TRIPOS>BOND
     1     1     2    1
     2     1    31    1
     3     1    32    1
     4     1    33    1
     5     2     7   ar
     6     2     3   ar
     7     3     4   ar
     8     4     5   ar
     9     5     6    1
    10     5     7   ar
    11     6    34    1
    12     6    35    1
    13     6    36    1
    14     7     8    1
    15     8     9    2
    16     8    10    2
    17     8    11    1
    18    11    15    1
    19    11    12    1
    20    12    13    1
    21    12    37    1
    22    12    38    1
    23    13    14    1
    24    13    39    1
    25    13    40    1
    26    14    15    1
    27    14    41    1
    28    14    42    1
    29    15    16    1
    30    15    17    1
    31    17    18    2
    32    17    19   am
    33    19    20    1
    34    19    43    1
    35    20    21    1
    36    20    44    1
    37    20    45    1
    38    21    30   ar
    39    21    22   ar
    40    22    23   ar
    41    22    46    1
    42    23    24   ar
    43    23    47    1
    44    24    25    1
    45    24    29   ar
    46    25    26    1
    47    25    27    1
    48    25    28    1
    49    29    30   ar
    50    29    48    1
    51    30    49    1
