@<TRIPOS>MOLECULE
ZINC000016610263
 52 53 0 0 0
SMALL
GASTEIGER

@<TRIPOS>ATOM
      1 C          -0.0187    1.5258    0.0104 C.3     1  UNL1       -0.0636
      2 C           0.0021   -0.0041    0.0020 C.3     1  UNL1       -0.0376
      3 C           0.7421   -0.5109    1.2415 C.3     1  UNL1        0.0201
      4 H           1.7350   -0.0630    1.2804 H       1  UNL1        0.0495
      5 C           0.8719   -2.0337    1.1708 C.3     1  UNL1       -0.0466
      6 N          -0.0083   -0.1401    2.4439 N.am    1  UNL1       -0.3116
      7 C           0.6303   -0.0111    3.6237 C.2     1  UNL1        0.2290
      8 O           1.8262   -0.2020    3.6901 O.2     1  UNL1       -0.2743
      9 C          -0.1416    0.3704    4.8606 C.3     1  UNL1        0.0968
     10 N           0.7725    0.4448    6.0030 N.3     1  UNL1       -0.1675
     11 C           1.5227    1.6762    6.2619 C.3     1  UNL1        0.0250
     12 C           0.6576    2.6382    7.0787 C.3     1  UNL1       -0.0132
     13 C           1.4293    3.9050    7.3450 C.ar    1  UNL1       -0.0461
     14 C           2.2164    4.0099    8.4765 C.ar    1  UNL1       -0.0585
     15 C           2.9243    5.1718    8.7208 C.ar    1  UNL1       -0.0615
     16 C           2.8454    6.2287    7.8333 C.ar    1  UNL1       -0.0617
     17 C           2.0591    6.1235    6.7013 C.ar    1  UNL1       -0.0615
     18 C           1.3546    4.9599    6.4548 C.ar    1  UNL1       -0.0585
     19 S           0.9576   -0.8630    7.0018 S.O2    1  UNL1        0.0613
     20 O           1.2679   -0.3449    8.2881 O.2     1  UNL1       -0.1528
     21 O          -0.1510   -1.7169    6.7546 O.2     1  UNL1       -0.1528
     22 C           2.3886   -1.7358    6.4585 C.ar    1  UNL1        0.1055
     23 C           2.2711   -2.7314    5.5068 C.ar    1  UNL1       -0.0353
     24 C           3.3938   -3.4161    5.0805 C.ar    1  UNL1       -0.0599
     25 C           4.6341   -3.1048    5.6057 C.ar    1  UNL1       -0.0616
     26 C           4.7517   -2.1086    6.5567 C.ar    1  UNL1       -0.0599
     27 C           3.6296   -1.4210    6.9798 C.ar    1  UNL1       -0.0353
     28 H           1.0039    1.9031    0.0027 H       1  UNL1        0.0230
     29 H          -0.5459    1.8868   -0.8726 H       1  UNL1        0.0230
     30 H          -0.5289    1.8773    0.9072 H       1  UNL1        0.0230
     31 H          -1.0205   -0.3814    0.0098 H       1  UNL1        0.0280
     32 H           0.5123   -0.3556   -0.8948 H       1  UNL1        0.0280
     33 H           1.3991   -2.3948    2.0539 H       1  UNL1        0.0247
     34 H          -0.1210   -2.4817    1.1320 H       1  UNL1        0.0247
     35 H           1.4302   -2.3096    0.2763 H       1  UNL1        0.0247
     36 H          -0.9647    0.0126    2.3909 H       1  UNL1        0.1490
     37 H          -0.6138    1.3411    4.7092 H       1  UNL1        0.0539
     38 H          -0.9077   -0.3798    5.0565 H       1  UNL1        0.0539
     39 H           2.4286    1.4393    6.8198 H       1  UNL1        0.0447
     40 H           1.7912    2.1440    5.3147 H       1  UNL1        0.0447
     41 H          -0.2483    2.8752    6.5208 H       1  UNL1        0.0326
     42 H           0.3891    2.1705    8.0259 H       1  UNL1        0.0326
     43 H           2.2780    3.1841    9.1699 H       1  UNL1        0.0620
     44 H           3.5387    5.2540    9.6052 H       1  UNL1        0.0618
     45 H           3.3979    7.1368    8.0245 H       1  UNL1        0.0618
     46 H           1.9972    6.9493    6.0081 H       1  UNL1        0.0618
     47 H           0.7402    4.8777    5.5704 H       1  UNL1        0.0620
     48 H           1.3021   -2.9746    5.0965 H       1  UNL1        0.0637
     49 H           3.3019   -4.1944    4.3375 H       1  UNL1        0.0618
     50 H           5.5111   -3.6403    5.2731 H       1  UNL1        0.0618
     51 H           5.7206   -1.8656    6.9673 H       1  UNL1        0.0618
     52 H           3.7215   -0.6426    7.7229 H       1  UNL1        0.0637
@<TRIPOS>BOND
     1     1     2    1
     2     1    28    1
     3     1    29    1
     4     1    30    1
     5     2     3    1
     6     2    31    1
     7     2    32    1
     8     3     4    1
     9     3     5    1
    10     3     6    1
    11     5    33    1
    12     5    34    1
    13     5    35    1
    14     6     7   am
    15     6    36    1
    16     7     8    2
    17     7     9    1
    18     9    10    1
    19     9    37    1
    20     9    38    1
    21    10    11    1
    22    19    10    1
    23    11    12    1
    24    11    39    1
    25    11    40    1
    26    12    13    1
    27    12    41    1
    28    12    42    1
    29    13    18   ar
    30    13    14   ar
    31    14    15   ar
    32    14    43    1
    33    15    16   ar
    34    15    44    1
    35    16    17   ar
    36    16    45    1
    37    17    18   ar
    38    17    46    1
    39    18    47    1
    40    19    20    2
    41    19    21    2
    42    19    22    1
    43    22    27   ar
    44    22    23   ar
    45    23    24   ar
    46    23    48    1
    47    24    25   ar
    48    24    49    1
    49    25    26   ar
    50    25    50    1
    51    26    27   ar
    52    26    51    1
    53    27    52    1
