@<TRIPOS>MOLECULE
ZINC000020033067
 63 64 0 0 0
SMALL
GASTEIGER

@<TRIPOS>ATOM
      1 C          -0.0187    1.5258    0.0104 C.3     1  UNL1       -0.0507
      2 C           0.0021   -0.0041    0.0020 C.3     1  UNL1        0.0177
      3 N          -1.3723   -0.5112    0.0124 N.3     1  UNL1       -0.1771
      4 C          -2.1099   -0.6542   -1.2453 C.3     1  UNL1        0.0177
      5 C          -1.7727   -2.0031   -1.8836 C.3     1  UNL1       -0.0507
      6 S          -2.0922   -0.9227    1.4458 S.O2    1  UNL1        0.0608
      7 O          -3.1196   -1.8512    1.1269 O.2     1  UNL1       -0.1528
      8 O          -1.0393   -1.2108    2.3555 O.2     1  UNL1       -0.1528
      9 C          -2.8978    0.5199    2.0580 C.ar    1  UNL1        0.1055
     10 C          -2.2156    1.3954    2.8820 C.ar    1  UNL1       -0.0351
     11 C          -2.8476    2.5271    3.3622 C.ar    1  UNL1       -0.0567
     12 C          -4.1616    2.7836    3.0181 C.ar    1  UNL1       -0.0468
     13 C          -4.8508    4.0171    3.5421 C.3     1  UNL1       -0.0194
     14 C          -4.6371    5.1747    2.5647 C.3     1  UNL1        0.0279
     15 C          -5.3263    6.4082    3.0886 C.2     1  UNL1        0.2136
     16 O          -5.9290    6.3657    4.1402 O.2     1  UNL1       -0.2758
     17 N          -5.2728    7.5587    2.3886 N.am    1  UNL1       -0.3112
     18 C          -5.9428    8.7579    2.8979 C.3     1  UNL1        0.0368
     19 C          -5.7323    9.8980    1.9352 C.ar    1  UNL1       -0.0302
     20 C          -4.6348   10.7268    2.0748 C.ar    1  UNL1       -0.0552
     21 C          -4.4418   11.7727    1.1917 C.ar    1  UNL1       -0.0350
     22 C          -5.3460   11.9895    0.1688 C.ar    1  UNL1        0.1055
     23 S          -5.1003   13.3229   -0.9564 S.O2    1  UNL1        0.0604
     24 O          -6.3779   13.6344   -1.4947 O.2     1  UNL1       -0.1529
     25 O          -4.2888   14.2738   -0.2807 O.2     1  UNL1       -0.1529
     26 N          -4.1920   12.7424   -2.2136 N.3     1  UNL1       -0.1827
     27 C          -4.8508   12.1611   -3.3859 C.3     1  UNL1        0.0086
     28 C          -2.7298   12.8102   -2.1534 C.3     1  UNL1        0.0086
     29 C          -6.4428   11.1599    0.0285 C.ar    1  UNL1       -0.0350
     30 C          -6.6338   10.1117    0.9093 C.ar    1  UNL1       -0.0552
     31 C          -4.8434    1.9088    2.1930 C.ar    1  UNL1       -0.0567
     32 C          -4.2102    0.7790    1.7096 C.ar    1  UNL1       -0.0351
     33 H           1.0039    1.9031    0.0027 H       1  UNL1        0.0243
     34 H          -0.5459    1.8868   -0.8726 H       1  UNL1        0.0243
     35 H          -0.5289    1.8773    0.9072 H       1  UNL1        0.0243
     36 H           0.5123   -0.3556   -0.8948 H       1  UNL1        0.0441
     37 H           0.5293   -0.3651    0.8851 H       1  UNL1        0.0441
     38 H          -3.1804   -0.6037   -1.0465 H       1  UNL1        0.0441
     39 H          -1.8283    0.1500   -1.9251 H       1  UNL1        0.0441
     40 H          -2.3215   -2.1096   -2.8194 H       1  UNL1        0.0243
     41 H          -0.7022   -2.0536   -2.0825 H       1  UNL1        0.0243
     42 H          -2.0544   -2.8073   -1.2038 H       1  UNL1        0.0243
     43 H          -1.1890    1.1950    3.1509 H       1  UNL1        0.0637
     44 H          -2.3149    3.2108    4.0066 H       1  UNL1        0.0621
     45 H          -5.9180    3.8210    3.6452 H       1  UNL1        0.0318
     46 H          -4.4342    4.2808    4.5142 H       1  UNL1        0.0318
     47 H          -3.5699    5.3709    2.4615 H       1  UNL1        0.0361
     48 H          -5.0537    4.9110    1.5925 H       1  UNL1        0.0361
     49 H          -4.7908    7.5927    1.5475 H       1  UNL1        0.1490
     50 H          -7.0100    8.5617    3.0011 H       1  UNL1        0.0512
     51 H          -5.5262    9.0216    3.8701 H       1  UNL1        0.0512
     52 H          -3.9283   10.5574    2.8739 H       1  UNL1        0.0621
     53 H          -3.5847   12.4206    1.3011 H       1  UNL1        0.0637
     54 H          -5.0388   12.9427   -4.1219 H       1  UNL1        0.0408
     55 H          -4.2072   11.3976   -3.8230 H       1  UNL1        0.0408
     56 H          -5.7965   11.7103   -3.0850 H       1  UNL1        0.0408
     57 H          -2.3426   11.9012   -1.6932 H       1  UNL1        0.0408
     58 H          -2.3288   12.9059   -3.1624 H       1  UNL1        0.0408
     59 H          -2.4303   13.6740   -1.5599 H       1  UNL1        0.0408
     60 H          -7.1491   11.3290   -0.7709 H       1  UNL1        0.0637
     61 H          -7.4907    9.4635    0.7996 H       1  UNL1        0.0621
     62 H          -5.8699    2.1094    1.9238 H       1  UNL1        0.0621
     63 H          -4.7428    0.0956    1.0650 H       1  UNL1        0.0637
@<TRIPOS>BOND
     1     1     2    1
     2     1    33    1
     3     1    34    1
     4     1    35    1
     5     2     3    1
     6     2    36    1
     7     2    37    1
     8     3     4    1
     9     6     3    1
    10     4     5    1
    11     4    38    1
    12     4    39    1
    13     5    40    1
    14     5    41    1
    15     5    42    1
    16     6     7    2
    17     6     8    2
    18     6     9    1
    19     9    32   ar
    20     9    10   ar
    21    10    11   ar
    22    10    43    1
    23    11    12   ar
    24    11    44    1
    25    12    13    1
    26    12    31   ar
    27    13    14    1
    28    13    45    1
    29    13    46    1
    30    14    15    1
    31    14    47    1
    32    14    48    1
    33    15    16    2
    34    15    17   am
    35    17    18    1
    36    17    49    1
    37    18    19    1
    38    18    50    1
    39    18    51    1
    40    19    30   ar
    41    19    20   ar
    42    20    21   ar
    43    20    52    1
    44    21    22   ar
    45    21    53    1
    46    22    23    1
    47    22    29   ar
    48    23    24    2
    49    23    25    2
    50    23    26    1
    51    26    27    1
    52    26    28    1
    53    27    54    1
    54    27    55    1
    55    27    56    1
    56    28    57    1
    57    28    58    1
    58    28    59    1
    59    29    30   ar
    60    29    60    1
    61    30    61    1
    62    31    32   ar
    63    31    62    1
    64    32    63    1
