@<TRIPOS>MOLECULE
ZINC000028207791
 55 55 0 0 0
SMALL
GASTEIGER

@<TRIPOS>ATOM
      1 C          -0.0187    1.5258    0.0104 C.3     1  UNL1       -0.0652
      2 C           0.0021   -0.0041    0.0020 C.3     1  UNL1       -0.0542
      3 C           0.7182   -0.4975   -1.2568 C.3     1  UNL1       -0.0350
      4 C           0.7390   -2.0273   -1.2652 C.3     1  UNL1        0.0204
      5 H           1.1870   -2.3897   -0.3400 H       1  UNL1        0.0495
      6 C           1.5619   -2.5197   -2.4574 C.3     1  UNL1       -0.0466
      7 N          -0.6313   -2.5337   -1.3752 N.am    1  UNL1       -0.3099
      8 C          -0.9349   -3.7625   -0.9121 C.2     1  UNL1        0.2509
      9 O          -0.0737   -4.4490   -0.4043 O.2     1  UNL1       -0.2721
     10 C          -2.3445   -4.2833   -1.0253 C.3     1  UNL1        0.1652
     11 O          -2.4129   -5.5975   -0.4681 O.3     1  UNL1       -0.4825
     12 C          -3.6232   -6.2151   -0.4909 C.ar    1  UNL1        0.1242
     13 C          -4.7210   -5.5719   -1.0434 C.ar    1  UNL1       -0.0178
     14 C          -5.9504   -6.2021   -1.0659 C.ar    1  UNL1       -0.0319
     15 C          -6.0869   -7.4724   -0.5378 C.ar    1  UNL1        0.1060
     16 S          -7.6562   -8.2732   -0.5675 S.O2    1  UNL1        0.0608
     17 O          -7.6336   -9.2389    0.4747 O.2     1  UNL1       -0.1528
     18 O          -8.6310   -7.2427   -0.6512 O.2     1  UNL1       -0.1528
     19 N          -7.7477   -9.1200   -1.9877 N.3     1  UNL1       -0.1771
     20 C          -7.2819  -10.5078   -2.0443 C.3     1  UNL1        0.0177
     21 C          -8.4661  -11.4524   -1.8291 C.3     1  UNL1       -0.0507
     22 C          -8.2945   -8.4812   -3.1874 C.3     1  UNL1        0.0177
     23 C          -7.1505   -7.9088   -4.0267 C.3     1  UNL1       -0.0507
     24 C          -4.9939   -8.1159    0.0131 C.ar    1  UNL1       -0.0290
     25 C          -3.7617   -7.4923    0.0332 C.ar    1  UNL1       -0.0069
     26 C          -2.5708   -8.1943    0.6333 C.3     1  UNL1       -0.0362
     27 H           1.0039    1.9031    0.0027 H       1  UNL1        0.0230
     28 H          -0.5459    1.8868   -0.8726 H       1  UNL1        0.0230
     29 H          -0.5289    1.8773    0.9072 H       1  UNL1        0.0230
     30 H           0.5293   -0.3651    0.8851 H       1  UNL1        0.0263
     31 H          -1.0205   -0.3814    0.0098 H       1  UNL1        0.0263
     32 H           0.1910   -0.1364   -2.1398 H       1  UNL1        0.0283
     33 H           1.7408   -0.1202   -1.2645 H       1  UNL1        0.0283
     34 H           2.5814   -2.1429   -2.3755 H       1  UNL1        0.0247
     35 H           1.5766   -3.6095   -2.4634 H       1  UNL1        0.0247
     36 H           1.1138   -2.1573   -3.3826 H       1  UNL1        0.0247
     37 H          -1.3201   -1.9846   -1.7814 H       1  UNL1        0.1491
     38 H          -3.0206   -3.6229   -0.4824 H       1  UNL1        0.0795
     39 H          -2.6358   -4.3182   -2.0751 H       1  UNL1        0.0795
     40 H          -4.6150   -4.5792   -1.4554 H       1  UNL1        0.0655
     41 H          -6.8054   -5.7018   -1.4959 H       1  UNL1        0.0638
     42 H          -6.8352  -10.7016   -3.0195 H       1  UNL1        0.0441
     43 H          -6.5385  -10.6737   -1.2647 H       1  UNL1        0.0441
     44 H          -8.1196  -12.4850   -1.8713 H       1  UNL1        0.0243
     45 H          -8.9129  -11.2586   -0.8540 H       1  UNL1        0.0243
     46 H          -9.2096  -11.2865   -2.6088 H       1  UNL1        0.0243
     47 H          -8.8419   -9.2188   -3.7742 H       1  UNL1        0.0441
     48 H          -8.9688   -7.6763   -2.8952 H       1  UNL1        0.0441
     49 H          -6.6031   -7.1712   -3.4398 H       1  UNL1        0.0243
     50 H          -6.4761   -8.7137   -4.3189 H       1  UNL1        0.0243
     51 H          -7.5573   -7.4335   -4.9193 H       1  UNL1        0.0243
     52 H          -5.1031   -9.1085    0.4247 H       1  UNL1        0.0641
     53 H          -2.0623   -8.7717   -0.1388 H       1  UNL1        0.0279
     54 H          -1.8839   -7.4558    1.0465 H       1  UNL1        0.0279
     55 H          -2.9051   -8.8633    1.4263 H       1  UNL1        0.0279
@<TRIPOS>BOND
     1     1     2    1
     2     1    27    1
     3     1    28    1
     4     1    29    1
     5     2     3    1
     6     2    30    1
     7     2    31    1
     8     3     4    1
     9     3    32    1
    10     3    33    1
    11     4     5    1
    12     4     6    1
    13     4     7    1
    14     6    34    1
    15     6    35    1
    16     6    36    1
    17     7     8   am
    18     7    37    1
    19     8     9    2
    20     8    10    1
    21    10    11    1
    22    10    38    1
    23    10    39    1
    24    11    12    1
    25    12    25   ar
    26    12    13   ar
    27    13    14   ar
    28    13    40    1
    29    14    15   ar
    30    14    41    1
    31    15    16    1
    32    15    24   ar
    33    16    17    2
    34    16    18    2
    35    16    19    1
    36    19    20    1
    37    19    22    1
    38    20    21    1
    39    20    42    1
    40    20    43    1
    41    21    44    1
    42    21    45    1
    43    21    46    1
    44    22    23    1
    45    22    47    1
    46    22    48    1
    47    23    49    1
    48    23    50    1
    49    23    51    1
    50    24    25   ar
    51    24    52    1
    52    25    26    1
    53    26    53    1
    54    26    54    1
    55    26    55    1
