@<TRIPOS>MOLECULE
ZINC000170656910
 42 43 0 0 0
SMALL
GASTEIGER

@<TRIPOS>ATOM
      1 C          -0.0910    1.5683   -0.0716 C.3     1  UNL1       -0.0497
      2 C          -0.0522    0.0388   -0.0715 C.3     1  UNL1        0.0049
      3 C           0.7100   -0.4520    1.1610 C.3     1  UNL1       -0.0497
      4 N          -1.4239   -0.4858   -0.0400 N.3     1  UNL1       -0.2969
      5 C          -2.1657    0.0488    1.1098 C.3     1  UNL1        0.0150
      6 C          -3.6348   -0.3748    1.0074 C.3     1  UNL1        0.0278
      7 N          -3.6901   -1.8368    0.8569 N.am    1  UNL1       -0.2950
      8 C          -4.4767   -2.5851    1.6556 C.2     1  UNL1        0.2485
      9 O          -5.0716   -2.0671    2.5810 O.2     1  UNL1       -0.2699
     10 C          -4.6158   -4.0317    1.4072 C.ar    1  UNL1        0.0580
     11 C          -4.9998   -4.4946    0.1463 C.ar    1  UNL1       -0.0362
     12 C          -5.1275   -5.8479   -0.0796 C.ar    1  UNL1        0.0556
     13 C          -5.5419   -6.3447   -1.4406 C.3     1  UNL1        0.4174
     14 F          -4.4038   -6.5572   -2.2259 F       1  UNL1       -0.1659
     15 F          -6.2453   -7.5463   -1.3042 F       1  UNL1       -0.1659
     16 F          -6.3613   -5.3918   -2.0553 F       1  UNL1       -0.1659
     17 C          -4.8765   -6.7544    0.9380 C.ar    1  UNL1       -0.0483
     18 C          -4.4963   -6.3130    2.1890 C.ar    1  UNL1       -0.0398
     19 C          -4.3575   -4.9528    2.4346 C.ar    1  UNL1        0.0368
     20 N          -3.9745   -4.5061    3.6925 N.pl3   1  UNL1       -0.3574
     21 C          -2.8647   -2.4605   -0.1885 C.3     1  UNL1        0.0278
     22 C          -1.4259   -1.9548   -0.0390 C.3     1  UNL1        0.0150
     23 H           0.9269    1.9576   -0.0951 H       1  UNL1        0.0245
     24 H          -0.6340    1.9179   -0.9497 H       1  UNL1        0.0245
     25 H          -0.5934    1.9191    0.8298 H       1  UNL1        0.0245
     26 H           0.4503   -0.3120   -0.9730 H       1  UNL1        0.0457
     27 H           0.2076   -0.1012    2.0624 H       1  UNL1        0.0245
     28 H           0.7377   -1.5416    1.1610 H       1  UNL1        0.0245
     29 H           1.7279   -0.0627    1.1375 H       1  UNL1        0.0245
     30 H          -1.7378   -0.3427    2.0326 H       1  UNL1        0.0442
     31 H          -2.1001    1.1368    1.1109 H       1  UNL1        0.0442
     32 H          -4.1650   -0.0795    1.9128 H       1  UNL1        0.0477
     33 H          -4.0932    0.1002    0.1399 H       1  UNL1        0.0477
     34 H          -5.1967   -3.7926   -0.6504 H       1  UNL1        0.0631
     35 H          -4.9795   -7.8130    0.7509 H       1  UNL1        0.0624
     36 H          -4.3029   -7.0260    2.9768 H       1  UNL1        0.0636
     37 H          -3.7334   -5.1450    4.3814 H       1  UNL1        0.1423
     38 H          -3.9481   -3.5552    3.8823 H       1  UNL1        0.1423
     39 H          -2.8857   -3.5442   -0.0737 H       1  UNL1        0.0477
     40 H          -3.2490   -2.1860   -1.1709 H       1  UNL1        0.0477
     41 H          -0.8237   -2.3199   -0.8710 H       1  UNL1        0.0442
     42 H          -1.0083   -2.3184    0.8999 H       1  UNL1        0.0442
@<TRIPOS>BOND
     1     1     2    1
     2     1    23    1
     3     1    24    1
     4     1    25    1
     5     2     3    1
     6     2     4    1
     7     2    26    1
     8     3    27    1
     9     3    28    1
    10     3    29    1
    11     4    22    1
    12     4     5    1
    13     5     6    1
    14     5    30    1
    15     5    31    1
    16     6     7    1
    17     6    32    1
    18     6    33    1
    19     7     8   am
    20     7    21    1
    21     8     9    2
    22     8    10    1
    23    10    19   ar
    24    10    11   ar
    25    11    12   ar
    26    11    34    1
    27    12    13    1
    28    12    17   ar
    29    13    14    1
    30    13    15    1
    31    13    16    1
    32    17    18   ar
    33    17    35    1
    34    18    19   ar
    35    18    36    1
    36    19    20    1
    37    20    37    1
    38    20    38    1
    39    21    22    1
    40    21    39    1
    41    21    40    1
    42    22    41    1
    43    22    42    1
