@<TRIPOS>MOLECULE
ZINC000010679653
 47 49 0 0 0
SMALL
GASTEIGER

@<TRIPOS>ATOM
      1 O           0.0021   -0.0041    0.0020 O.2     1  UNL1       -0.2702
      2 C          -0.0144    1.2113    0.0087 C.2     1  UNL1        0.2443
      3 N           1.1435    1.9010    0.0013 N.am    1  UNL1       -0.3084
      4 C           2.4220    1.1859   -0.0147 C.3     1  UNL1        0.0258
      5 C           2.7910    0.8335   -1.4575 C.3     1  UNL1       -0.0200
      6 C           4.1107    0.0557   -1.4674 C.3     1  UNL1        0.0222
      7 N           5.1291    0.8433   -0.7593 N.3     1  UNL1       -0.1765
      8 S           6.5760    1.1970   -1.4830 S.O2    1  UNL1        0.0609
      9 O           7.5000    1.4451   -0.4323 O.2     1  UNL1       -0.1528
     10 O           6.7798    0.2043   -2.4790 O.2     1  UNL1       -0.1528
     11 C           6.3722    2.7245   -2.3373 C.ar    1  UNL1        0.1055
     12 C           5.9418    2.7296   -3.6510 C.ar    1  UNL1       -0.0348
     13 C           5.7819    3.9280   -4.3212 C.ar    1  UNL1       -0.0483
     14 C           6.0519    5.1213   -3.6777 C.ar    1  UNL1        0.0549
     15 C           5.8780    6.4276   -4.4086 C.3     1  UNL1        0.4174
     16 F           4.5720    6.8944   -4.2252 F       1  UNL1       -0.1659
     17 F           6.7840    7.3675   -3.9056 F       1  UNL1       -0.1659
     18 F           6.1167    6.2338   -5.7734 F       1  UNL1       -0.1659
     19 C           6.4809    5.1162   -2.3636 C.ar    1  UNL1       -0.0483
     20 C           6.6371    3.9180   -1.6922 C.ar    1  UNL1       -0.0348
     21 C           4.8391    1.3114    0.6028 C.3     1  UNL1        0.0222
     22 C           3.5112    2.0751    0.5895 C.3     1  UNL1       -0.0200
     23 C          -1.3047    1.9331    0.0187 C.ar    1  UNL1        0.0367
     24 C          -1.3272    3.3287    0.0206 C.ar    1  UNL1       -0.0496
     25 C          -2.5345    3.9960    0.0295 C.ar    1  UNL1       -0.0610
     26 C          -3.7214    3.2849    0.0371 C.ar    1  UNL1       -0.0617
     27 C          -3.7062    1.9014    0.0353 C.ar    1  UNL1       -0.0610
     28 C          -2.5057    1.2219    0.0206 C.ar    1  UNL1       -0.0496
     29 H           1.1303    2.8709    0.0067 H       1  UNL1        0.1493
     30 H           2.3337    0.2710    0.5712 H       1  UNL1        0.0499
     31 H           2.0036    0.2195   -1.8948 H       1  UNL1        0.0296
     32 H           2.9039    1.7490   -2.0382 H       1  UNL1        0.0296
     33 H           3.9744   -0.9018   -0.9647 H       1  UNL1        0.0444
     34 H           4.4285   -0.1116   -2.4966 H       1  UNL1        0.0444
     35 H           5.7309    1.7974   -4.1537 H       1  UNL1        0.0637
     36 H           5.4464    3.9320   -5.3478 H       1  UNL1        0.0624
     37 H           6.6915    6.0485   -1.8607 H       1  UNL1        0.0624
     38 H           6.9723    3.9141   -0.6655 H       1  UNL1        0.0637
     39 H           4.7622    0.4563    1.2744 H       1  UNL1        0.0444
     40 H           5.6375    1.9726    0.9397 H       1  UNL1        0.0444
     41 H           3.6173    2.9789   -0.0104 H       1  UNL1        0.0296
     42 H           3.2364    2.3448    1.6093 H       1  UNL1        0.0296
     43 H          -0.4014    3.8848    0.0154 H       1  UNL1        0.0625
     44 H          -2.5533    5.0758    0.0309 H       1  UNL1        0.0618
     45 H          -4.6640    3.8122    0.0447 H       1  UNL1        0.0618
     46 H          -4.6361    1.3523    0.0412 H       1  UNL1        0.0618
     47 H          -2.4951    0.1419    0.0188 H       1  UNL1        0.0625
@<TRIPOS>BOND
     1     1     2    2
     2     2     3   am
     3     2    23    1
     4     3     4    1
     5     3    29    1
     6     4    22    1
     7     4     5    1
     8     4    30    1
     9     5     6    1
    10     5    31    1
    11     5    32    1
    12     6     7    1
    13     6    33    1
    14     6    34    1
    15     8     7    1
    16     7    21    1
    17     8     9    2
    18     8    10    2
    19     8    11    1
    20    11    20   ar
    21    11    12   ar
    22    12    13   ar
    23    12    35    1
    24    13    14   ar
    25    13    36    1
    26    14    15    1
    27    14    19   ar
    28    15    16    1
    29    15    17    1
    30    15    18    1
    31    19    20   ar
    32    19    37    1
    33    20    38    1
    34    21    22    1
    35    21    39    1
    36    21    40    1
    37    22    41    1
    38    22    42    1
    39    23    28   ar
    40    23    24   ar
    41    24    25   ar
    42    24    43    1
    43    25    26   ar
    44    25    44    1
    45    26    27   ar
    46    26    45    1
    47    27    28   ar
    48    27    46    1
    49    28    47    1
