@<TRIPOS>MOLECULE
ZINC000000916043
 57 59 0 0 0
SMALL
GASTEIGER

@<TRIPOS>ATOM
      1 C          -3.4427   -8.8423    0.6366 C.3     1  UNL1       -0.0397
      2 C          -2.5317   -7.6545    0.4625 C.ar    1  UNL1       -0.0504
      3 C          -2.2433   -6.8405    1.5420 C.ar    1  UNL1       -0.0585
      4 C          -1.4077   -5.7510    1.3823 C.ar    1  UNL1       -0.0570
      5 C          -0.8600   -5.4757    0.1433 C.ar    1  UNL1       -0.0316
      6 C           0.0506   -4.2877   -0.0309 C.3     1  UNL1        0.0460
      7 N           1.4455   -4.7207    0.0830 N.3     1  UNL1       -0.1635
      8 C           2.0613   -4.8676    1.4042 C.3     1  UNL1        0.0971
      9 C           1.7435   -6.2329    1.9575 C.2     1  UNL1        0.2289
     10 O           1.0690   -7.0069    1.3119 O.2     1  UNL1       -0.2743
     11 N           2.2088   -6.5937    3.1699 N.am    1  UNL1       -0.3117
     12 C           1.8998   -7.9208    3.7078 C.3     1  UNL1        0.0379
     13 C           2.5430   -8.0743    5.0876 C.3     1  UNL1        0.0742
     14 H           3.6102   -7.8619    5.0236 H       1  UNL1        0.0611
     15 C           2.3252   -9.5105    5.6101 C.3     1  UNL1       -0.0231
     16 C           2.0450   -9.2733    7.1191 C.3     1  UNL1       -0.0271
     17 C           1.2896   -7.9214    7.0691 C.3     1  UNL1        0.0482
     18 O           1.9234   -7.1757    6.0151 O.3     1  UNL1       -0.3750
     19 S           2.3262   -5.0441   -1.2816 S.O2    1  UNL1        0.0616
     20 O           3.2845   -6.0280   -0.9169 O.2     1  UNL1       -0.1528
     21 O           1.3864   -5.2262   -2.3318 O.2     1  UNL1       -0.1528
     22 C           3.2345   -3.5861   -1.6739 C.ar    1  UNL1        0.1055
     23 C           2.7216   -2.6745   -2.5776 C.ar    1  UNL1       -0.0351
     24 C           3.4342   -1.5306   -2.8854 C.ar    1  UNL1       -0.0570
     25 C           4.6595   -1.2982   -2.2891 C.ar    1  UNL1       -0.0503
     26 C           5.4366   -0.0515   -2.6249 C.3     1  UNL1       -0.0397
     27 C           5.1718   -2.2092   -1.3843 C.ar    1  UNL1       -0.0570
     28 C           4.4574   -3.3512   -1.0737 C.ar    1  UNL1       -0.0351
     29 C          -1.1472   -6.2905   -0.9358 C.ar    1  UNL1       -0.0570
     30 C          -1.9799   -7.3822   -0.7753 C.ar    1  UNL1       -0.0585
     31 H          -2.8518   -9.7163    0.9106 H       1  UNL1        0.0278
     32 H          -4.1672   -8.6323    1.4234 H       1  UNL1        0.0278
     33 H          -3.9680   -9.0374   -0.2983 H       1  UNL1        0.0278
     34 H          -2.6712   -7.0556    2.5100 H       1  UNL1        0.0620
     35 H          -1.1830   -5.1147    2.2255 H       1  UNL1        0.0621
     36 H          -0.1134   -3.8452   -1.0134 H       1  UNL1        0.0493
     37 H          -0.1646   -3.5487    0.7410 H       1  UNL1        0.0493
     38 H           3.1418   -4.7538    1.3161 H       1  UNL1        0.0539
     39 H           1.6690   -4.1033    2.0750 H       1  UNL1        0.0539
     40 H           2.7483   -5.9746    3.6862 H       1  UNL1        0.1488
     41 H           0.8194   -8.0346    3.7959 H       1  UNL1        0.0487
     42 H           2.2922   -8.6851    3.0370 H       1  UNL1        0.0487
     43 H           1.4665   -9.9740    5.1243 H       1  UNL1        0.0291
     44 H           3.2226  -10.1137    5.4723 H       1  UNL1        0.0291
     45 H           1.4137  -10.0611    7.5301 H       1  UNL1        0.0288
     46 H           2.9742   -9.1835    7.6818 H       1  UNL1        0.0288
     47 H           0.2370   -8.0845    6.8378 H       1  UNL1        0.0560
     48 H           1.3922   -7.3953    8.0182 H       1  UNL1        0.0560
     49 H           1.7643   -2.8560   -3.0435 H       1  UNL1        0.0637
     50 H           3.0338   -0.8187   -3.5919 H       1  UNL1        0.0621
     51 H           5.1560    0.7475   -1.9386 H       1  UNL1        0.0278
     52 H           6.5039   -0.2524   -2.5318 H       1  UNL1        0.0278
     53 H           5.2120    0.2522   -3.6474 H       1  UNL1        0.0278
     54 H           6.1289   -2.0275   -0.9182 H       1  UNL1        0.0621
     55 H           4.8576   -4.0629   -0.3668 H       1  UNL1        0.0637
     56 H          -0.7190   -6.0756   -1.9038 H       1  UNL1        0.0621
     57 H          -2.2043   -8.0188   -1.6184 H       1  UNL1        0.0620
@<TRIPOS>BOND
     1     1     2    1
     2     1    31    1
     3     1    32    1
     4     1    33    1
     5     2    30   ar
     6     2     3   ar
     7     3     4   ar
     8     3    34    1
     9     4     5   ar
    10     4    35    1
    11     5     6    1
    12     5    29   ar
    13     6     7    1
    14     6    36    1
    15     6    37    1
    16     7     8    1
    17    19     7    1
    18     8     9    1
    19     8    38    1
    20     8    39    1
    21     9    10    2
    22     9    11   am
    23    11    12    1
    24    11    40    1
    25    12    13    1
    26    12    41    1
    27    12    42    1
    28    13    14    1
    29    13    18    1
    30    13    15    1
    31    15    16    1
    32    15    43    1
    33    15    44    1
    34    16    17    1
    35    16    45    1
    36    16    46    1
    37    17    18    1
    38    17    47    1
    39    17    48    1
    40    19    20    2
    41    19    21    2
    42    19    22    1
    43    22    28   ar
    44    22    23   ar
    45    23    24   ar
    46    23    49    1
    47    24    25   ar
    48    24    50    1
    49    25    26    1
    50    25    27   ar
    51    26    51    1
    52    26    52    1
    53    26    53    1
    54    27    28   ar
    55    27    54    1
    56    28    55    1
    57    29    30   ar
    58    29    56    1
    59    30    57    1
