@<TRIPOS>MOLECULE
ZINC000004811634
 57 58 0 0 0
SMALL
GASTEIGER

@<TRIPOS>ATOM
      1 C          -0.0173    1.4248    0.0099 C.3     1  UNL1        0.0364
      2 O           0.0021   -0.0041    0.0020 O.3     1  UNL1       -0.3829
      3 C           0.6734   -0.5824    1.1231 C.3     1  UNL1        0.0487
      4 C           0.6327   -2.1077    1.0107 C.3     1  UNL1       -0.0139
      5 C           1.3514   -2.7270    2.2110 C.3     1  UNL1        0.0137
      6 N           1.3125   -4.1875    2.1034 N.am    1  UNL1       -0.3141
      7 C           1.8871   -4.9489    3.0555 C.2     1  UNL1        0.2288
      8 O           2.4365   -4.4251    4.0013 O.2     1  UNL1       -0.2743
      9 C           1.8470   -6.4513    2.9447 C.3     1  UNL1        0.0968
     10 N           2.5352   -7.0443    4.0941 N.3     1  UNL1       -0.1675
     11 C           1.8124   -7.2579    5.3503 C.3     1  UNL1        0.0250
     12 C           1.0708   -8.5948    5.2910 C.3     1  UNL1       -0.0132
     13 C           0.3273   -8.8146    6.5832 C.ar    1  UNL1       -0.0461
     14 C           0.9468   -9.4625    7.6355 C.ar    1  UNL1       -0.0585
     15 C           0.2648   -9.6641    8.8209 C.ar    1  UNL1       -0.0615
     16 C          -1.0366   -9.2174    8.9542 C.ar    1  UNL1       -0.0617
     17 C          -1.6558   -8.5687    7.9022 C.ar    1  UNL1       -0.0615
     18 C          -0.9723   -8.3633    6.7183 C.ar    1  UNL1       -0.0585
     19 S           4.1302   -7.4730    3.9732 S.O2    1  UNL1        0.0613
     20 O           4.3534   -8.4707    4.9602 O.2     1  UNL1       -0.1528
     21 O           4.3874   -7.6762    2.5906 O.2     1  UNL1       -0.1528
     22 C           5.0847   -6.0729    4.4564 C.ar    1  UNL1        0.1057
     23 C           5.4700   -5.1407    3.5107 C.ar    1  UNL1       -0.0319
     24 C           6.2183   -4.0421    3.8870 C.ar    1  UNL1       -0.0181
     25 C           6.5828   -3.8745    5.2150 C.ar    1  UNL1        0.1202
     26 O           7.3186   -2.7944    5.5877 O.3     1  UNL1       -0.4951
     27 C           7.6574   -2.6865    6.9718 C.3     1  UNL1        0.0788
     28 C           6.1946   -4.8110    6.1620 C.ar    1  UNL1       -0.0181
     29 C           5.4422   -5.9053    5.7815 C.ar    1  UNL1       -0.0319
     30 H           1.0053    1.8021    0.0021 H       1  UNL1        0.0523
     31 H          -0.5445    1.7859   -0.8732 H       1  UNL1        0.0523
     32 H          -0.5275    1.7763    0.9067 H       1  UNL1        0.0523
     33 H           1.7103   -0.2468    1.1385 H       1  UNL1        0.0560
     34 H           0.1775   -0.2725    2.0430 H       1  UNL1        0.0560
     35 H          -0.4042   -2.4434    0.9953 H       1  UNL1        0.0302
     36 H           1.1285   -2.4176    0.0908 H       1  UNL1        0.0302
     37 H           2.3884   -2.3913    2.2264 H       1  UNL1        0.0463
     38 H           0.8556   -2.4171    3.1309 H       1  UNL1        0.0463
     39 H           0.8731   -4.6065    1.3469 H       1  UNL1        0.1487
     40 H           0.8101   -6.7870    2.9294 H       1  UNL1        0.0539
     41 H           2.3429   -6.7612    2.0248 H       1  UNL1        0.0539
     42 H           2.5204   -7.2716    6.1790 H       1  UNL1        0.0447
     43 H           1.0951   -6.4507    5.4986 H       1  UNL1        0.0447
     44 H           0.3628   -8.5811    4.4623 H       1  UNL1        0.0326
     45 H           1.7881   -9.4020    5.1427 H       1  UNL1        0.0326
     46 H           1.9636   -9.8115    7.5314 H       1  UNL1        0.0620
     47 H           0.7486  -10.1709    9.6428 H       1  UNL1        0.0618
     48 H          -1.5696   -9.3755    9.8800 H       1  UNL1        0.0618
     49 H          -2.6727   -8.2200    8.0062 H       1  UNL1        0.0618
     50 H          -1.4561   -7.8565    5.8964 H       1  UNL1        0.0620
     51 H           5.1860   -5.2717    2.4770 H       1  UNL1        0.0638
     52 H           6.5196   -3.3146    3.1478 H       1  UNL1        0.0655
     53 H           6.7453   -2.6389    7.5665 H       1  UNL1        0.0660
     54 H           8.2417   -3.5565    7.2716 H       1  UNL1        0.0660
     55 H           8.2439   -1.7820    7.1328 H       1  UNL1        0.0660
     56 H           6.4773   -4.6829    7.1964 H       1  UNL1        0.0655
     57 H           5.1394   -6.6345    6.5183 H       1  UNL1        0.0638
@<TRIPOS>BOND
     1     1     2    1
     2     1    30    1
     3     1    31    1
     4     1    32    1
     5     2     3    1
     6     3     4    1
     7     3    33    1
     8     3    34    1
     9     4     5    1
    10     4    35    1
    11     4    36    1
    12     5     6    1
    13     5    37    1
    14     5    38    1
    15     6     7   am
    16     6    39    1
    17     7     8    2
    18     7     9    1
    19     9    10    1
    20     9    40    1
    21     9    41    1
    22    10    11    1
    23    19    10    1
    24    11    12    1
    25    11    42    1
    26    11    43    1
    27    12    13    1
    28    12    44    1
    29    12    45    1
    30    13    18   ar
    31    13    14   ar
    32    14    15   ar
    33    14    46    1
    34    15    16   ar
    35    15    47    1
    36    16    17   ar
    37    16    48    1
    38    17    18   ar
    39    17    49    1
    40    18    50    1
    41    19    20    2
    42    19    21    2
    43    19    22    1
    44    22    29   ar
    45    22    23   ar
    46    23    24   ar
    47    23    51    1
    48    24    25   ar
    49    24    52    1
    50    25    26    1
    51    25    28   ar
    52    26    27    1
    53    27    53    1
    54    27    54    1
    55    27    55    1
    56    28    29   ar
    57    28    56    1
    58    29    57    1
