@<TRIPOS>MOLECULE
ZINC000016648334
 47 48 0 0 0
SMALL
GASTEIGER

@<TRIPOS>ATOM
      1 C          -0.0178    1.4608    0.0101 C.3     1  UNL1        0.0086
      2 N           0.0021   -0.0041    0.0020 N.3     1  UNL1       -0.1827
      3 C           0.0241   -0.7433    1.2666 C.3     1  UNL1        0.0086
      4 S          -0.0004   -0.8243   -1.4366 S.O2    1  UNL1        0.0604
      5 O          -0.5247   -2.1160   -1.1611 O.2     1  UNL1       -0.1529
      6 O          -0.5660    0.0551   -2.3989 O.2     1  UNL1       -0.1529
      7 C           1.6816   -1.0597   -1.9056 C.ar    1  UNL1        0.1057
      8 C           2.3224   -0.1085   -2.6779 C.ar    1  UNL1       -0.0319
      9 C           3.6411   -0.2907   -3.0469 C.ar    1  UNL1       -0.0181
     10 C           4.3226   -1.4291   -2.6417 C.ar    1  UNL1        0.1213
     11 O           5.6201   -1.6104   -3.0031 O.3     1  UNL1       -0.4828
     12 C           6.2587   -2.8058   -2.5500 C.3     1  UNL1        0.1651
     13 C           7.6821   -2.8332   -3.0443 C.2     1  UNL1        0.2509
     14 O           8.1077   -1.9191   -3.7182 O.2     1  UNL1       -0.2721
     15 N           8.4821   -3.8735   -2.7374 N.am    1  UNL1       -0.3097
     16 C           9.8658   -3.9002   -3.2179 C.3     1  UNL1        0.0232
     17 C          10.7569   -3.1188   -2.2503 C.3     1  UNL1       -0.0345
     18 C          12.2020   -3.1467   -2.7522 C.3     1  UNL1       -0.0514
     19 C          12.6857   -4.5959   -2.8337 C.3     1  UNL1       -0.0529
     20 C          11.7946   -5.3773   -3.8014 C.3     1  UNL1       -0.0514
     21 C          10.3495   -5.3494   -3.2995 C.3     1  UNL1       -0.0345
     22 C           3.6776   -2.3818   -1.8665 C.ar    1  UNL1       -0.0181
     23 C           2.3603   -2.1926   -1.4960 C.ar    1  UNL1       -0.0319
     24 H           1.0048    1.8381    0.0023 H       1  UNL1        0.0408
     25 H          -0.5450    1.8219   -0.8730 H       1  UNL1        0.0408
     26 H          -0.5280    1.8123    0.9069 H       1  UNL1        0.0408
     27 H          -0.9979   -0.9406    1.5900 H       1  UNL1        0.0408
     28 H           0.5496   -1.6879    1.1262 H       1  UNL1        0.0408
     29 H           0.5371   -0.1514    2.0246 H       1  UNL1        0.0408
     30 H           1.7914    0.7776   -2.9931 H       1  UNL1        0.0638
     31 H           4.1409    0.4522   -3.6507 H       1  UNL1        0.0655
     32 H           6.2520   -2.8307   -1.4603 H       1  UNL1        0.0795
     33 H           5.7231   -3.6729   -2.9365 H       1  UNL1        0.0795
     34 H           8.1417   -4.6046   -2.1984 H       1  UNL1        0.1491
     35 H           9.9159   -3.4443   -4.2067 H       1  UNL1        0.0498
     36 H          10.4123   -2.0864   -2.1922 H       1  UNL1        0.0283
     37 H          10.7068   -3.5748   -1.2615 H       1  UNL1        0.0283
     38 H          12.2520   -2.6907   -3.7410 H       1  UNL1        0.0266
     39 H          12.8368   -2.5900   -2.0628 H       1  UNL1        0.0266
     40 H          13.7152   -4.6157   -3.1913 H       1  UNL1        0.0265
     41 H          12.6356   -5.0519   -1.8450 H       1  UNL1        0.0265
     42 H          11.8447   -4.9213   -4.7902 H       1  UNL1        0.0266
     43 H          12.1392   -6.4097   -3.8595 H       1  UNL1        0.0266
     44 H          10.2994   -5.8054   -2.3107 H       1  UNL1        0.0283
     45 H           9.7147   -5.9061   -3.9889 H       1  UNL1        0.0283
     46 H           4.2059   -3.2690   -1.5500 H       1  UNL1        0.0655
     47 H           1.8578   -2.9338   -0.8923 H       1  UNL1        0.0638
@<TRIPOS>BOND
     1     1     2    1
     2     1    24    1
     3     1    25    1
     4     1    26    1
     5     2     3    1
     6     4     2    1
     7     3    27    1
     8     3    28    1
     9     3    29    1
    10     4     5    2
    11     4     6    2
    12     4     7    1
    13     7    23   ar
    14     7     8   ar
    15     8     9   ar
    16     8    30    1
    17     9    10   ar
    18     9    31    1
    19    10    11    1
    20    10    22   ar
    21    11    12    1
    22    12    13    1
    23    12    32    1
    24    12    33    1
    25    13    14    2
    26    13    15   am
    27    15    16    1
    28    15    34    1
    29    16    21    1
    30    16    17    1
    31    16    35    1
    32    17    18    1
    33    17    36    1
    34    17    37    1
    35    18    19    1
    36    18    38    1
    37    18    39    1
    38    19    20    1
    39    19    40    1
    40    19    41    1
    41    20    21    1
    42    20    42    1
    43    20    43    1
    44    21    44    1
    45    21    45    1
    46    22    23   ar
    47    22    46    1
    48    23    47    1
