@<TRIPOS>MOLECULE
ZINC000409068262
 50 51 0 0 0
SMALL
GASTEIGER

@<TRIPOS>ATOM
      1 C          -0.0173    1.4248    0.0099 C.3     1  UNL1        0.0364
      2 O           0.0021   -0.0041    0.0020 O.3     1  UNL1       -0.3829
      3 C           0.6518   -0.5703   -1.1379 C.3     1  UNL1        0.0487
      4 C           0.6131   -2.0967   -1.0411 C.3     1  UNL1       -0.0139
      5 C           1.3087   -2.7029   -2.2615 C.3     1  UNL1        0.0137
      6 N           1.2717   -4.1645   -2.1688 N.am    1  UNL1       -0.3141
      7 C           1.8279   -4.9157   -3.1398 C.2     1  UNL1        0.2288
      8 O           2.3592   -4.3816   -4.0903 O.2     1  UNL1       -0.2743
      9 C           1.7898   -6.4192   -3.0444 C.3     1  UNL1        0.0971
     10 N           2.4559   -6.9996   -4.2130 N.3     1  UNL1       -0.1635
     11 C           3.9101   -7.1769   -4.2144 C.3     1  UNL1        0.0461
     12 C           4.2576   -8.4830   -3.5479 C.ar    1  UNL1       -0.0315
     13 C           4.4803   -8.5248   -2.1842 C.ar    1  UNL1       -0.0546
     14 C           4.7990   -9.7221   -1.5719 C.ar    1  UNL1       -0.0262
     15 C           4.8949  -10.8801   -2.3248 C.ar    1  UNL1        0.1234
     16 F           5.2060  -12.0511   -1.7273 F       1  UNL1       -0.2055
     17 C           4.6713  -10.8371   -3.6905 C.ar    1  UNL1       -0.0262
     18 C           4.3479   -9.6396   -4.2999 C.ar    1  UNL1       -0.0546
     19 S           1.5650   -7.4555   -5.5324 S.O2    1  UNL1        0.0616
     20 O           2.2600   -8.5413   -6.1302 O.2     1  UNL1       -0.1528
     21 O           0.2158   -7.5427   -5.0949 O.2     1  UNL1       -0.1528
     22 C           1.6282   -6.1274   -6.6886 C.ar    1  UNL1        0.1055
     23 C           0.6773   -5.1251   -6.6427 C.ar    1  UNL1       -0.0353
     24 C           0.7269   -4.0832   -7.5498 C.ar    1  UNL1       -0.0599
     25 C           1.7277   -4.0432   -8.5024 C.ar    1  UNL1       -0.0616
     26 C           2.6792   -5.0450   -8.5478 C.ar    1  UNL1       -0.0599
     27 C           2.6321   -6.0847   -7.6380 C.ar    1  UNL1       -0.0353
     28 H           1.0053    1.8021    0.0021 H       1  UNL1        0.0523
     29 H          -0.5445    1.7859   -0.8732 H       1  UNL1        0.0523
     30 H          -0.5275    1.7763    0.9067 H       1  UNL1        0.0523
     31 H           0.1385   -0.2506   -2.0447 H       1  UNL1        0.0560
     32 H           1.6883   -0.2344   -1.1694 H       1  UNL1        0.0560
     33 H           1.1264   -2.4164   -0.1342 H       1  UNL1        0.0302
     34 H          -0.4234   -2.4326   -1.0095 H       1  UNL1        0.0302
     35 H           0.7954   -2.3833   -3.1684 H       1  UNL1        0.0463
     36 H           2.3452   -2.3671   -2.2930 H       1  UNL1        0.0463
     37 H           0.8468   -4.5917   -1.4086 H       1  UNL1        0.1487
     38 H           2.3031   -6.7389   -2.1376 H       1  UNL1        0.0539
     39 H           0.7533   -6.7551   -3.0129 H       1  UNL1        0.0539
     40 H           4.2742   -7.1850   -5.2418 H       1  UNL1        0.0493
     41 H           4.3767   -6.3558   -3.6701 H       1  UNL1        0.0493
     42 H           4.4054   -7.6214   -1.5971 H       1  UNL1        0.0622
     43 H           4.9736   -9.7544   -0.5066 H       1  UNL1        0.0646
     44 H           4.7461  -11.7397   -4.2789 H       1  UNL1        0.0646
     45 H           4.1731   -9.6058   -5.3651 H       1  UNL1        0.0622
     46 H          -0.1046   -5.1564   -5.8984 H       1  UNL1        0.0637
     47 H          -0.0165   -3.3006   -7.5143 H       1  UNL1        0.0618
     48 H           1.7661   -3.2295   -9.2116 H       1  UNL1        0.0618
     49 H           3.4610   -5.0139   -9.2923 H       1  UNL1        0.0618
     50 H           3.3755   -6.8673   -7.6734 H       1  UNL1        0.0637
@<TRIPOS>BOND
     1     1     2    1
     2     1    28    1
     3     1    29    1
     4     1    30    1
     5     2     3    1
     6     3     4    1
     7     3    31    1
     8     3    32    1
     9     4     5    1
    10     4    33    1
    11     4    34    1
    12     5     6    1
    13     5    35    1
    14     5    36    1
    15     6     7   am
    16     6    37    1
    17     7     8    2
    18     7     9    1
    19     9    10    1
    20     9    38    1
    21     9    39    1
    22    10    11    1
    23    19    10    1
    24    11    12    1
    25    11    40    1
    26    11    41    1
    27    12    18   ar
    28    12    13   ar
    29    13    14   ar
    30    13    42    1
    31    14    15   ar
    32    14    43    1
    33    15    16    1
    34    15    17   ar
    35    17    18   ar
    36    17    44    1
    37    18    45    1
    38    19    20    2
    39    19    21    2
    40    19    22    1
    41    22    27   ar
    42    22    23   ar
    43    23    24   ar
    44    23    46    1
    45    24    25   ar
    46    24    47    1
    47    25    26   ar
    48    25    48    1
    49    26    27   ar
    50    26    49    1
    51    27    50    1
