@<TRIPOS>MOLECULE
ZINC000004785188
 46 48 0 0 0
SMALL
GASTEIGER

@<TRIPOS>ATOM
      1 C           0.0082    1.4961   -0.0021 C.3     1  UNL1       -0.0171
      2 C           0.0269   -0.0107   -0.0068 C.ar    1  UNL1        0.1071
      3 N           0.0394   -0.7872   -1.0516 N.ar    1  UNL1       -0.0813
      4 O           0.0534   -1.9550   -0.7383 O.2     1  UNL1       -0.3576
      5 C           0.0520   -2.1080    0.5934 C.ar    1  UNL1        0.1607
      6 C           0.0670   -3.4100    1.3520 C.3     1  UNL1       -0.0017
      7 C           0.0405   -0.8611    1.1225 C.ar    1  UNL1        0.1696
      8 S           0.0332   -0.4049    2.8244 S.O2    1  UNL1        0.0666
      9 O          -0.5223    0.9016    2.8872 O.2     1  UNL1       -0.1527
     10 O          -0.5035   -1.5126    3.5345 O.2     1  UNL1       -0.1527
     11 N           1.6129   -0.2647    3.3011 N.3     1  UNL1       -0.1646
     12 C           2.4434   -1.3507    3.8528 C.3     1  UNL1        0.0214
     13 C           3.9025   -0.9256    3.5525 C.3     1  UNL1       -0.0366
     14 C           3.8293    0.6098    3.7629 C.3     1  UNL1       -0.0260
     15 C           2.4213    0.9617    3.2384 C.3     1  UNL1        0.1081
     16 H           2.4868    1.3162    2.2097 H       1  UNL1        0.0576
     17 C           1.8012    2.0248    4.1081 C.2     1  UNL1        0.2361
     18 O           0.7750    1.7924    4.7114 O.2     1  UNL1       -0.2737
     19 N           2.3871    3.2338    4.2155 N.am    1  UNL1       -0.2841
     20 C           1.7621    4.2518    4.9443 C.ar    1  UNL1        0.0340
     21 C           1.8675    5.5718    4.5267 C.ar    1  UNL1       -0.0405
     22 C           1.2495    6.5744    5.2485 C.ar    1  UNL1       -0.0595
     23 C           0.5269    6.2647    6.3858 C.ar    1  UNL1       -0.0500
     24 C           0.4204    4.9510    6.8046 C.ar    1  UNL1        0.0566
     25 C          -0.3682    4.6179    8.0449 C.3     1  UNL1        0.4175
     26 F          -0.8929    5.7931    8.5934 F       1  UNL1       -0.1659
     27 F          -1.4145    3.7504    7.7133 F       1  UNL1       -0.1659
     28 F           0.4707    4.0012    8.9793 F       1  UNL1       -0.1659
     29 C           1.0304    3.9433    6.0838 C.ar    1  UNL1       -0.0288
     30 H           1.0313    1.8722   -0.0037 H       1  UNL1        0.0294
     31 H          -0.5125    1.8558   -0.8895 H       1  UNL1        0.0294
     32 H          -0.5076    1.8503    0.8905 H       1  UNL1        0.0294
     33 H           0.0792   -4.2412    0.6469 H       1  UNL1        0.0309
     34 H           0.9562   -3.4539    1.9808 H       1  UNL1        0.0309
     35 H          -0.8236   -3.4767    1.9769 H       1  UNL1        0.0309
     36 H           2.2876   -1.4386    4.9280 H       1  UNL1        0.0444
     37 H           2.2133   -2.2936    3.3569 H       1  UNL1        0.0444
     38 H           4.5960   -1.3840    4.2576 H       1  UNL1        0.0279
     39 H           4.1761   -1.1666    2.5252 H       1  UNL1        0.0279
     40 H           3.9246    0.8592    4.8197 H       1  UNL1        0.0286
     41 H           4.5949    1.1166    3.1754 H       1  UNL1        0.0286
     42 H           3.2419    3.3983    3.7876 H       1  UNL1        0.1549
     43 H           2.4324    5.8144    3.6388 H       1  UNL1        0.0636
     44 H           1.3311    7.6013    4.9242 H       1  UNL1        0.0618
     45 H           0.0449    7.0505    6.9485 H       1  UNL1        0.0623
     46 H           0.9468    2.9176    6.4114 H       1  UNL1        0.0642
@<TRIPOS>BOND
     1     1     2    1
     2     1    30    1
     3     1    31    1
     4     1    32    1
     5     2     7   ar
     6     2     3   ar
     7     3     4   ar
     8     4     5   ar
     9     5     6    1
    10     5     7   ar
    11     6    33    1
    12     6    34    1
    13     6    35    1
    14     7     8    1
    15     8     9    2
    16     8    10    2
    17     8    11    1
    18    11    15    1
    19    11    12    1
    20    12    13    1
    21    12    36    1
    22    12    37    1
    23    13    14    1
    24    13    38    1
    25    13    39    1
    26    14    15    1
    27    14    40    1
    28    14    41    1
    29    15    16    1
    30    15    17    1
    31    17    18    2
    32    17    19   am
    33    19    20    1
    34    19    42    1
    35    20    29   ar
    36    20    21   ar
    37    21    22   ar
    38    21    43    1
    39    22    23   ar
    40    22    44    1
    41    23    24   ar
    42    23    45    1
    43    24    25    1
    44    24    29   ar
    45    25    26    1
    46    25    27    1
    47    25    28    1
    48    29    46    1
