@<TRIPOS>MOLECULE
ZINC000003457872
 42 43 0 0 0
SMALL
GASTEIGER

@<TRIPOS>ATOM
      1 C          -0.0375    1.5261    0.0528 C.3     1  UNL1       -0.0507
      2 C          -0.0124   -0.0036    0.0337 C.3     1  UNL1        0.0177
      3 N           0.7107   -0.4948    1.2093 N.3     1  UNL1       -0.1771
      4 C           0.0085   -0.6621    2.4841 C.3     1  UNL1        0.0177
      5 C          -0.6744   -2.0309    2.5144 C.3     1  UNL1       -0.0507
      6 S           2.3218   -0.8609    1.0972 S.O2    1  UNL1        0.0608
      7 O           2.5967   -1.7858    2.1404 O.2     1  UNL1       -0.1528
      8 O           2.5761   -1.1371   -0.2734 O.2     1  UNL1       -0.1528
      9 C           3.2182    0.6060    1.4837 C.ar    1  UNL1        0.1056
     10 C           3.5543    1.4942    0.4786 C.ar    1  UNL1       -0.0336
     11 C           4.2568    2.6449    0.7783 C.ar    1  UNL1       -0.0384
     12 C           4.6253    2.9097    2.0908 C.ar    1  UNL1        0.0364
     13 N           5.3367    4.0748    2.3979 N.am    1  UNL1       -0.2706
     14 C           5.6731    4.5049    3.7601 C.3     1  UNL1        0.0333
     15 C           6.0473    5.9988    3.6401 C.3     1  UNL1        0.0849
     16 H           5.1790    6.6338    3.8160 H       1  UNL1        0.0435
     17 C           7.1694    6.3512    4.5824 C.2     1  UNL1        0.3610
     18 O           7.9517    7.2405    4.2932 O.co2   1  UNL1       -0.2460
     19 O           7.2949    5.7469    5.6338 O.co2   1  UNL1       -0.2460
     20 C           6.5107    6.0905    2.1677 C.3     1  UNL1        0.0390
     21 C           5.8048    4.9410    1.4827 C.2     1  UNL1        0.2206
     22 O           5.6739    4.8221    0.2828 O.2     1  UNL1       -0.2752
     23 C           4.2858    2.0159    3.0980 C.ar    1  UNL1       -0.0384
     24 C           3.5790    0.8693    2.7924 C.ar    1  UNL1       -0.0336
     25 H           0.9838    1.9065    0.0363 H       1  UNL1        0.0243
     26 H          -0.5755    1.8916   -0.8219 H       1  UNL1        0.0243
     27 H          -0.5387    1.8700    0.9576 H       1  UNL1        0.0243
     28 H          -1.0338   -0.3839    0.0503 H       1  UNL1        0.0441
     29 H           0.4888   -0.3475   -0.8710 H       1  UNL1        0.0441
     30 H           0.7233   -0.5945    3.3043 H       1  UNL1        0.0441
     31 H          -0.7422    0.1209    2.5910 H       1  UNL1        0.0441
     32 H          -1.1969   -2.1554    3.4629 H       1  UNL1        0.0243
     33 H          -1.3892   -2.0985    1.6943 H       1  UNL1        0.0243
     34 H           0.0762   -2.8139    2.4075 H       1  UNL1        0.0243
     35 H           3.2674    1.2877   -0.5419 H       1  UNL1        0.0638
     36 H           4.5196    3.3379   -0.0072 H       1  UNL1        0.0637
     37 H           4.8122    4.3833    4.4175 H       1  UNL1        0.0477
     38 H           6.5207    3.9329    4.1378 H       1  UNL1        0.0477
     39 H           6.2081    7.0422    1.7311 H       1  UNL1        0.0367
     40 H           7.5913    5.9647    2.0993 H       1  UNL1        0.0367
     41 H           4.5710    2.2189    4.1197 H       1  UNL1        0.0637
     42 H           3.3147    0.1738    3.5752 H       1  UNL1        0.0638
@<TRIPOS>BOND
     1     1     2    1
     2     1    25    1
     3     1    26    1
     4     1    27    1
     5     2     3    1
     6     2    28    1
     7     2    29    1
     8     3     4    1
     9     6     3    1
    10     4     5    1
    11     4    30    1
    12     4    31    1
    13     5    32    1
    14     5    33    1
    15     5    34    1
    16     6     7    2
    17     6     8    2
    18     6     9    1
    19     9    24   ar
    20     9    10   ar
    21    10    11   ar
    22    10    35    1
    23    11    12   ar
    24    11    36    1
    25    12    13    1
    26    12    23   ar
    27    13    21   am
    28    13    14    1
    29    14    15    1
    30    14    37    1
    31    14    38    1
    32    15    16    1
    33    15    17    1
    34    15    20    1
    35    17    18   ar
    36    17    19   ar
    37    20    21    1
    38    20    39    1
    39    20    40    1
    40    21    22    2
    41    23    24   ar
    42    23    41    1
    43    24    42    1
