@<TRIPOS>MOLECULE
ZINC000006944775
 52 53 0 0 0
SMALL
GASTEIGER

@<TRIPOS>ATOM
      1 C          -0.0187    1.5258    0.0104 C.3     1  UNL1       -0.0652
      2 C           0.0021   -0.0041    0.0020 C.3     1  UNL1       -0.0542
      3 C           0.7421   -0.5109    1.2415 C.3     1  UNL1       -0.0350
      4 C           0.7628   -2.0407    1.2331 C.3     1  UNL1        0.0203
      5 H           1.1931   -2.3931    0.2957 H       1  UNL1        0.0495
      6 C           1.6083   -2.5458    2.4040 C.3     1  UNL1       -0.0466
      7 N          -0.6052   -2.5484    1.3639 N.am    1  UNL1       -0.3116
      8 C          -0.9177   -3.7721    0.8935 C.2     1  UNL1        0.2290
      9 O          -0.0664   -4.4531    0.3620 O.2     1  UNL1       -0.2743
     10 C          -2.3249   -4.2944    1.0279 C.3     1  UNL1        0.0971
     11 N          -2.4060   -5.6354    0.4437 N.3     1  UNL1       -0.1635
     12 C          -2.0445   -6.8069    1.2457 C.3     1  UNL1        0.0460
     13 C          -3.2351   -7.2461    2.0584 C.ar    1  UNL1       -0.0317
     14 C          -3.4393   -6.7251    3.3225 C.ar    1  UNL1       -0.0573
     15 C          -4.5314   -7.1281    4.0680 C.ar    1  UNL1       -0.0615
     16 C          -5.4196   -8.0516    3.5493 C.ar    1  UNL1       -0.0617
     17 C          -5.2160   -8.5719    2.2849 C.ar    1  UNL1       -0.0615
     18 C          -4.1262   -8.1657    1.5377 C.ar    1  UNL1       -0.0573
     19 S          -2.9064   -5.8270   -1.1232 S.O2    1  UNL1        0.0616
     20 O          -3.5425   -7.0960   -1.1889 O.2     1  UNL1       -0.1528
     21 O          -3.5507   -4.6147   -1.4898 O.2     1  UNL1       -0.1528
     22 C          -1.4596   -5.9434   -2.1222 C.ar    1  UNL1        0.1055
     23 C          -0.8928   -4.8001   -2.6535 C.ar    1  UNL1       -0.0353
     24 C           0.2422   -4.8914   -3.4373 C.ar    1  UNL1       -0.0599
     25 C           0.8107   -6.1260   -3.6893 C.ar    1  UNL1       -0.0616
     26 C           0.2443   -7.2692   -3.1572 C.ar    1  UNL1       -0.0599
     27 C          -0.8882   -7.1775   -2.3699 C.ar    1  UNL1       -0.0353
     28 H           1.0039    1.9031    0.0027 H       1  UNL1        0.0230
     29 H          -0.5459    1.8868   -0.8726 H       1  UNL1        0.0230
     30 H          -0.5289    1.8773    0.9072 H       1  UNL1        0.0230
     31 H          -1.0205   -0.3814    0.0098 H       1  UNL1        0.0263
     32 H           0.5123   -0.3556   -0.8948 H       1  UNL1        0.0263
     33 H           1.7647   -0.1336    1.2338 H       1  UNL1        0.0283
     34 H           0.2319   -0.1594    2.1383 H       1  UNL1        0.0283
     35 H           1.6231   -3.6357    2.3980 H       1  UNL1        0.0247
     36 H           2.6261   -2.1681    2.3068 H       1  UNL1        0.0247
     37 H           1.1780   -2.1934    3.3415 H       1  UNL1        0.0247
     38 H          -1.2861   -2.0038    1.7889 H       1  UNL1        0.1490
     39 H          -2.5961   -4.3405    2.0827 H       1  UNL1        0.0539
     40 H          -3.0112   -3.6282    0.5052 H       1  UNL1        0.0539
     41 H          -1.7359   -7.6177    0.5859 H       1  UNL1        0.0493
     42 H          -1.2230   -6.5499    1.9144 H       1  UNL1        0.0493
     43 H          -2.7454   -6.0036    3.7278 H       1  UNL1        0.0621
     44 H          -4.6906   -6.7216    5.0559 H       1  UNL1        0.0618
     45 H          -6.2725   -8.3669    4.1320 H       1  UNL1        0.0618
     46 H          -5.9097   -9.2937    1.8797 H       1  UNL1        0.0618
     47 H          -3.9670   -8.5722    0.5498 H       1  UNL1        0.0621
     48 H          -1.3369   -3.8355   -2.4566 H       1  UNL1        0.0637
     49 H           0.6847   -3.9981   -3.8530 H       1  UNL1        0.0618
     50 H           1.6970   -6.1973   -4.3022 H       1  UNL1        0.0618
     51 H           0.6883   -8.2338   -3.3544 H       1  UNL1        0.0618
     52 H          -1.3307   -8.0707   -1.9542 H       1  UNL1        0.0637
@<TRIPOS>BOND
     1     1     2    1
     2     1    28    1
     3     1    29    1
     4     1    30    1
     5     2     3    1
     6     2    31    1
     7     2    32    1
     8     3     4    1
     9     3    33    1
    10     3    34    1
    11     4     5    1
    12     4     6    1
    13     4     7    1
    14     6    35    1
    15     6    36    1
    16     6    37    1
    17     7     8   am
    18     7    38    1
    19     8     9    2
    20     8    10    1
    21    10    11    1
    22    10    39    1
    23    10    40    1
    24    11    12    1
    25    19    11    1
    26    12    13    1
    27    12    41    1
    28    12    42    1
    29    13    18   ar
    30    13    14   ar
    31    14    15   ar
    32    14    43    1
    33    15    16   ar
    34    15    44    1
    35    16    17   ar
    36    16    45    1
    37    17    18   ar
    38    17    46    1
    39    18    47    1
    40    19    20    2
    41    19    21    2
    42    19    22    1
    43    22    27   ar
    44    22    23   ar
    45    23    24   ar
    46    23    48    1
    47    24    25   ar
    48    24    49    1
    49    25    26   ar
    50    25    50    1
    51    26    27   ar
    52    26    51    1
    53    27    52    1
