@<TRIPOS>MOLECULE
ZINC000006190556
 49 50 0 0 0
SMALL
GASTEIGER

@<TRIPOS>ATOM
      1 C          -0.0187    1.5258    0.0104 C.3     1  UNL1       -0.0469
      2 C           0.0021   -0.0041    0.0020 C.3     1  UNL1        0.0175
      3 C           0.7421   -0.5109    1.2415 C.3     1  UNL1       -0.0469
      4 N          -1.3723   -0.5112    0.0124 N.am    1  UNL1       -0.3119
      5 C          -2.0508   -0.6427   -1.1446 C.2     1  UNL1        0.2290
      6 O          -1.5236   -0.3413   -2.1944 O.2     1  UNL1       -0.2743
      7 C          -3.4646   -1.1643   -1.1339 C.3     1  UNL1        0.0968
      8 N          -3.9776   -1.2130   -2.5053 N.3     1  UNL1       -0.1675
      9 C          -3.7030   -2.3787   -3.3491 C.3     1  UNL1        0.0250
     10 C          -4.7472   -3.4632   -3.0762 C.3     1  UNL1       -0.0132
     11 C          -4.4648   -4.6623   -3.9441 C.ar    1  UNL1       -0.0461
     12 C          -5.0294   -4.7530   -5.2027 C.ar    1  UNL1       -0.0585
     13 C          -4.7703   -5.8529   -5.9989 C.ar    1  UNL1       -0.0615
     14 C          -3.9463   -6.8620   -5.5367 C.ar    1  UNL1       -0.0617
     15 C          -3.3810   -6.7709   -4.2785 C.ar    1  UNL1       -0.0615
     16 C          -3.6366   -5.6690   -3.4840 C.ar    1  UNL1       -0.0585
     17 S          -4.8677    0.0496   -3.1018 S.O2    1  UNL1        0.0613
     18 O          -5.7655   -0.5063   -4.0527 O.2     1  UNL1       -0.1528
     19 O          -5.2965    0.8048   -1.9770 O.2     1  UNL1       -0.1528
     20 C          -3.7645    1.0848   -4.0049 C.ar    1  UNL1        0.1055
     21 C          -3.1028    2.1154   -3.3638 C.ar    1  UNL1       -0.0353
     22 C          -2.2372    2.9276   -4.0723 C.ar    1  UNL1       -0.0599
     23 C          -2.0331    2.7090   -5.4219 C.ar    1  UNL1       -0.0616
     24 C          -2.6941    1.6779   -6.0629 C.ar    1  UNL1       -0.0599
     25 C          -3.5563    0.8630   -5.3534 C.ar    1  UNL1       -0.0353
     26 H           1.0039    1.9031    0.0027 H       1  UNL1        0.0247
     27 H          -0.5459    1.8868   -0.8726 H       1  UNL1        0.0247
     28 H          -0.5289    1.8773    0.9072 H       1  UNL1        0.0247
     29 H           0.5123   -0.3556   -0.8948 H       1  UNL1        0.0493
     30 H           0.2319   -0.1594    2.1383 H       1  UNL1        0.0247
     31 H           0.7568   -1.6008    1.2356 H       1  UNL1        0.0247
     32 H           1.7647   -0.1336    1.2338 H       1  UNL1        0.0247
     33 H          -1.7940   -0.7522    0.8520 H       1  UNL1        0.1490
     34 H          -3.4790   -2.1662   -0.7048 H       1  UNL1        0.0539
     35 H          -4.0912   -0.5035   -0.5349 H       1  UNL1        0.0539
     36 H          -3.7483   -2.0866   -4.3983 H       1  UNL1        0.0447
     37 H          -2.7096   -2.7656   -3.1222 H       1  UNL1        0.0447
     38 H          -4.7019   -3.7553   -2.0270 H       1  UNL1        0.0326
     39 H          -5.7407   -3.0764   -3.3031 H       1  UNL1        0.0326
     40 H          -5.6731   -3.9646   -5.5638 H       1  UNL1        0.0620
     41 H          -5.2119   -5.9240   -6.9819 H       1  UNL1        0.0618
     42 H          -3.7444   -7.7217   -6.1585 H       1  UNL1        0.0618
     43 H          -2.7374   -7.5595   -3.9173 H       1  UNL1        0.0618
     44 H          -3.1949   -5.5978   -2.5010 H       1  UNL1        0.0620
     45 H          -3.2623    2.2862   -2.3094 H       1  UNL1        0.0637
     46 H          -1.7208    3.7331   -3.5716 H       1  UNL1        0.0618
     47 H          -1.3574    3.3439   -5.9757 H       1  UNL1        0.0618
     48 H          -2.5348    1.5073   -7.1174 H       1  UNL1        0.0618
     49 H          -4.0728    0.0574   -5.8541 H       1  UNL1        0.0637
@<TRIPOS>BOND
     1     1     2    1
     2     1    26    1
     3     1    27    1
     4     1    28    1
     5     2     3    1
     6     2     4    1
     7     2    29    1
     8     3    30    1
     9     3    31    1
    10     3    32    1
    11     4     5   am
    12     4    33    1
    13     5     6    2
    14     5     7    1
    15     7     8    1
    16     7    34    1
    17     7    35    1
    18     8     9    1
    19    17     8    1
    20     9    10    1
    21     9    36    1
    22     9    37    1
    23    10    11    1
    24    10    38    1
    25    10    39    1
    26    11    16   ar
    27    11    12   ar
    28    12    13   ar
    29    12    40    1
    30    13    14   ar
    31    13    41    1
    32    14    15   ar
    33    14    42    1
    34    15    16   ar
    35    15    43    1
    36    16    44    1
    37    17    18    2
    38    17    19    2
    39    17    20    1
    40    20    25   ar
    41    20    21   ar
    42    21    22   ar
    43    21    45    1
    44    22    23   ar
    45    22    46    1
    46    23    24   ar
    47    23    47    1
    48    24    25   ar
    49    24    48    1
    50    25    49    1
