@<TRIPOS>MOLECULE
ZINC000028202862
 52 52 0 0 0
SMALL
GASTEIGER

@<TRIPOS>ATOM
      1 C          -0.0187    1.5258    0.0104 C.3     1  UNL1       -0.0507
      2 C           0.0021   -0.0041    0.0020 C.3     1  UNL1        0.0177
      3 N           0.6878   -0.4765   -1.2033 N.3     1  UNL1       -0.1771
      4 C           2.1478   -0.5966   -1.2159 C.3     1  UNL1        0.0177
      5 C           2.5532   -1.9514   -0.6319 C.3     1  UNL1       -0.0507
      6 S          -0.1875   -0.8749   -2.5515 S.O2    1  UNL1        0.0608
      7 O           0.6166   -1.7761   -3.3001 O.2     1  UNL1       -0.1528
      8 O          -1.4970   -1.1925   -2.1004 O.2     1  UNL1       -0.1528
      9 C          -0.3375    0.5853   -3.5262 C.ar    1  UNL1        0.1055
     10 C          -1.4057    1.4405   -3.3300 C.ar    1  UNL1       -0.0351
     11 C          -1.5234    2.5861   -4.0947 C.ar    1  UNL1       -0.0567
     12 C          -0.5727    2.8767   -5.0552 C.ar    1  UNL1       -0.0468
     13 C          -0.7013    4.1253   -5.8892 C.3     1  UNL1       -0.0194
     14 C           0.0204    5.2805   -5.1924 C.3     1  UNL1        0.0279
     15 C          -0.1082    6.5291   -6.0263 C.2     1  UNL1        0.2133
     16 O          -0.7171    6.4981   -7.0748 O.2     1  UNL1       -0.2758
     17 N           0.4534    7.6803   -5.6071 N.am    1  UNL1       -0.3152
     18 C           0.3284    8.8941   -6.4178 C.3     1  UNL1        0.0137
     19 C           1.0500   10.0494   -5.7210 C.3     1  UNL1       -0.0139
     20 C           0.9195   11.3171   -6.5677 C.3     1  UNL1        0.0487
     21 O           1.5935   12.3961   -5.9169 O.3     1  UNL1       -0.3829
     22 C           1.5318   13.6337   -6.6287 C.3     1  UNL1        0.0364
     23 C           0.4962    2.0221   -5.2504 C.ar    1  UNL1       -0.0567
     24 C           0.6160    0.8786   -4.4831 C.ar    1  UNL1       -0.0351
     25 H           1.0039    1.9031    0.0027 H       1  UNL1        0.0243
     26 H          -0.5459    1.8868   -0.8726 H       1  UNL1        0.0243
     27 H          -0.5289    1.8773    0.9072 H       1  UNL1        0.0243
     28 H           0.5293   -0.3651    0.8851 H       1  UNL1        0.0441
     29 H          -1.0205   -0.3814    0.0098 H       1  UNL1        0.0441
     30 H           2.5098   -0.5199   -2.2412 H       1  UNL1        0.0441
     31 H           2.5833    0.2026   -0.6162 H       1  UNL1        0.0441
     32 H           2.1177   -2.7506   -1.2316 H       1  UNL1        0.0243
     33 H           3.6395   -2.0407   -0.6413 H       1  UNL1        0.0243
     34 H           2.1912   -2.0280    0.3934 H       1  UNL1        0.0243
     35 H          -2.1485    1.2135   -2.5796 H       1  UNL1        0.0637
     36 H          -2.3583    3.2539   -3.9419 H       1  UNL1        0.0621
     37 H          -0.2543    3.9556   -6.8687 H       1  UNL1        0.0318
     38 H          -1.7555    4.3750   -6.0092 H       1  UNL1        0.0318
     39 H          -0.4267    5.4502   -4.2129 H       1  UNL1        0.0361
     40 H           1.0745    5.0308   -5.0723 H       1  UNL1        0.0361
     41 H           0.9404    7.7052   -4.7686 H       1  UNL1        0.1487
     42 H           0.7754    8.7245   -7.3973 H       1  UNL1        0.0463
     43 H          -0.7258    9.1439   -6.5379 H       1  UNL1        0.0463
     44 H           0.6030   10.2191   -4.7415 H       1  UNL1        0.0302
     45 H           2.1042    9.7996   -5.6010 H       1  UNL1        0.0302
     46 H           1.3665   11.1474   -7.5472 H       1  UNL1        0.0560
     47 H          -0.1347   11.5668   -6.6878 H       1  UNL1        0.0560
     48 H           1.9915   13.5120   -7.6095 H       1  UNL1        0.0523
     49 H           0.4903   13.9315   -6.7500 H       1  UNL1        0.0523
     50 H           2.0665   14.4014   -6.0695 H       1  UNL1        0.0523
     51 H           1.2392    2.2494   -6.0006 H       1  UNL1        0.0621
     52 H           1.4511    0.2109   -4.6357 H       1  UNL1        0.0637
@<TRIPOS>BOND
     1     1     2    1
     2     1    25    1
     3     1    26    1
     4     1    27    1
     5     2     3    1
     6     2    28    1
     7     2    29    1
     8     3     4    1
     9     6     3    1
    10     4     5    1
    11     4    30    1
    12     4    31    1
    13     5    32    1
    14     5    33    1
    15     5    34    1
    16     6     7    2
    17     6     8    2
    18     6     9    1
    19     9    24   ar
    20     9    10   ar
    21    10    11   ar
    22    10    35    1
    23    11    12   ar
    24    11    36    1
    25    12    13    1
    26    12    23   ar
    27    13    14    1
    28    13    37    1
    29    13    38    1
    30    14    15    1
    31    14    39    1
    32    14    40    1
    33    15    16    2
    34    15    17   am
    35    17    18    1
    36    17    41    1
    37    18    19    1
    38    18    42    1
    39    18    43    1
    40    19    20    1
    41    19    44    1
    42    19    45    1
    43    20    21    1
    44    20    46    1
    45    20    47    1
    46    21    22    1
    47    22    48    1
    48    22    49    1
    49    22    50    1
    50    23    24   ar
    51    23    51    1
    52    24    52    1
