@<TRIPOS>MOLECULE
ZINC000014135587
 55 56 0 0 0
SMALL
GASTEIGER

@<TRIPOS>ATOM
      1 C          -0.0187    1.5258    0.0104 C.3     1  UNL1       -0.0652
      2 C           0.0021   -0.0041    0.0020 C.3     1  UNL1       -0.0542
      3 C           0.7182   -0.4975   -1.2568 C.3     1  UNL1       -0.0350
      4 C           0.7390   -2.0273   -1.2652 C.3     1  UNL1        0.0203
      5 H          -0.2789   -2.4050   -1.1679 H       1  UNL1        0.0495
      6 C           1.3429   -2.5219   -2.5810 C.3     1  UNL1       -0.0466
      7 N           1.5485   -2.5109   -0.1440 N.am    1  UNL1       -0.3116
      8 C           1.3281   -3.7388    0.3660 C.2     1  UNL1        0.2290
      9 O           0.4596   -4.4434   -0.1031 O.2     1  UNL1       -0.2743
     10 C           2.1609   -4.2362    1.5193 C.3     1  UNL1        0.0968
     11 N           1.7293   -5.5872    1.8864 N.3     1  UNL1       -0.1675
     12 C           2.2724   -6.7479    1.1764 C.3     1  UNL1        0.0250
     13 C           3.6021   -7.1584    1.8123 C.3     1  UNL1       -0.0132
     14 C           4.1607   -8.3524    1.0820 C.ar    1  UNL1       -0.0461
     15 C           3.8293   -9.6304    1.4916 C.ar    1  UNL1       -0.0585
     16 C           4.3417  -10.7256    0.8217 C.ar    1  UNL1       -0.0615
     17 C           5.1853  -10.5428   -0.2581 C.ar    1  UNL1       -0.0617
     18 C           5.5161   -9.2648   -0.6682 C.ar    1  UNL1       -0.0615
     19 C           5.0002   -8.1696   -0.0009 C.ar    1  UNL1       -0.0585
     20 S           0.6275   -5.8024    3.1038 S.O2    1  UNL1        0.0613
     21 O           0.9203   -7.0623    3.6920 O.2     1  UNL1       -0.1528
     22 O           0.6016   -4.5877    3.8408 O.2     1  UNL1       -0.1528
     23 C          -0.9575   -5.9612    2.3507 C.ar    1  UNL1        0.1056
     24 C          -1.7294   -4.8375    2.1214 C.ar    1  UNL1       -0.0343
     25 C          -2.9726   -4.9615    1.5303 C.ar    1  UNL1       -0.0459
     26 C          -3.4444   -6.2104    1.1681 C.ar    1  UNL1        0.0180
     27 BR         -5.1450   -6.3807    0.3587 Br      1  UNL1       -0.0503
     28 C          -2.6718   -7.3345    1.3977 C.ar    1  UNL1       -0.0459
     29 C          -1.4265   -7.2089    1.9841 C.ar    1  UNL1       -0.0343
     30 H           1.0039    1.9031    0.0027 H       1  UNL1        0.0230
     31 H          -0.5459    1.8868   -0.8726 H       1  UNL1        0.0230
     32 H          -0.5289    1.8773    0.9072 H       1  UNL1        0.0230
     33 H           0.5293   -0.3651    0.8851 H       1  UNL1        0.0263
     34 H          -1.0205   -0.3814    0.0098 H       1  UNL1        0.0263
     35 H           0.1910   -0.1364   -2.1398 H       1  UNL1        0.0283
     36 H           1.7408   -0.1202   -1.2645 H       1  UNL1        0.0283
     37 H           0.7406   -2.1622   -3.4152 H       1  UNL1        0.0247
     38 H           2.3608   -2.1442   -2.6783 H       1  UNL1        0.0247
     39 H           1.3577   -3.6118   -2.5870 H       1  UNL1        0.0247
     40 H           2.2431   -1.9473    0.2312 H       1  UNL1        0.1490
     41 H           3.2108   -4.2570    1.2271 H       1  UNL1        0.0539
     42 H           2.0345   -3.5700    2.3727 H       1  UNL1        0.0539
     43 H           1.5672   -7.5765    1.2419 H       1  UNL1        0.0447
     44 H           2.4344   -6.4905    0.1297 H       1  UNL1        0.0447
     45 H           4.3072   -6.3298    1.7469 H       1  UNL1        0.0326
     46 H           3.4401   -7.4159    2.8590 H       1  UNL1        0.0326
     47 H           3.1702   -9.7732    2.3351 H       1  UNL1        0.0620
     48 H           4.0833  -11.7241    1.1421 H       1  UNL1        0.0618
     49 H           5.5863  -11.3985   -0.7810 H       1  UNL1        0.0618
     50 H           6.1754   -9.1220   -1.5116 H       1  UNL1        0.0618
     51 H           5.2586   -7.1711   -0.3214 H       1  UNL1        0.0620
     52 H          -1.3611   -3.8625    2.4046 H       1  UNL1        0.0637
     53 H          -3.5757   -4.0836    1.3516 H       1  UNL1        0.0629
     54 H          -3.0398   -8.3097    1.1150 H       1  UNL1        0.0629
     55 H          -0.8231   -8.0865    2.1634 H       1  UNL1        0.0637
@<TRIPOS>BOND
     1     1     2    1
     2     1    30    1
     3     1    31    1
     4     1    32    1
     5     2     3    1
     6     2    33    1
     7     2    34    1
     8     3     4    1
     9     3    35    1
    10     3    36    1
    11     4     5    1
    12     4     6    1
    13     4     7    1
    14     6    37    1
    15     6    38    1
    16     6    39    1
    17     7     8   am
    18     7    40    1
    19     8     9    2
    20     8    10    1
    21    10    11    1
    22    10    41    1
    23    10    42    1
    24    11    12    1
    25    20    11    1
    26    12    13    1
    27    12    43    1
    28    12    44    1
    29    13    14    1
    30    13    45    1
    31    13    46    1
    32    14    19   ar
    33    14    15   ar
    34    15    16   ar
    35    15    47    1
    36    16    17   ar
    37    16    48    1
    38    17    18   ar
    39    17    49    1
    40    18    19   ar
    41    18    50    1
    42    19    51    1
    43    20    21    2
    44    20    22    2
    45    20    23    1
    46    23    29   ar
    47    23    24   ar
    48    24    25   ar
    49    24    52    1
    50    25    26   ar
    51    25    53    1
    52    26    27    1
    53    26    28   ar
    54    28    29   ar
    55    28    54    1
    56    29    55    1
