@<TRIPOS>MOLECULE
ZINC000034812841
 49 52 0 0 0
SMALL
GASTEIGER

@<TRIPOS>ATOM
      1 C          -2.2581   -0.8329    1.3458 C.3     1  UNL1        0.0124
      2 C          -2.3649   -0.0762    0.0470 C.2     1  UNL1        0.2129
      3 O          -2.5343    1.1247    0.0570 O.2     1  UNL1       -0.2759
      4 N          -2.2722   -0.7339   -1.1257 N.am    1  UNL1       -0.2918
      5 C          -2.2073   -2.2018   -1.1570 C.3     1  UNL1        0.0511
      6 C          -0.9505   -2.6204   -1.9299 C.3     1  UNL1        0.0964
      7 N          -0.9130   -1.8826   -3.2004 N.pl3   1  UNL1       -0.2167
      8 C          -0.8192   -2.5544   -4.3981 C.2     1  UNL1        0.3249
      9 N          -0.9136   -3.8385   -4.3646 N.2     1  UNL1       -0.0376
     10 C          -0.8256   -4.6937   -5.4219 C.ar    1  UNL1        0.2183
     11 C          -0.1345   -5.8982   -5.2610 C.ar    1  UNL1       -0.0066
     12 C          -0.0553   -6.7977   -6.3054 C.ar    1  UNL1       -0.0458
     13 C          -0.6609   -6.5134   -7.5146 C.ar    1  UNL1        0.0585
     14 C          -0.5842   -7.5063   -8.6457 C.3     1  UNL1        0.4175
     15 F           0.1451   -8.6269   -8.2340 F       1  UNL1       -0.1659
     16 F          -1.8766   -7.8991   -9.0098 F       1  UNL1       -0.1659
     17 F           0.0500   -6.9146   -9.7434 F       1  UNL1       -0.1659
     18 C          -1.3383   -5.3187   -7.6889 C.ar    1  UNL1       -0.0034
     19 C          -1.4125   -4.4008   -6.6550 C.ar    1  UNL1        0.1794
     20 O          -2.0221   -3.2077   -6.8774 O.3     1  UNL1       -0.4508
     21 C          -1.2650   -2.0857   -6.8059 C.ar    1  UNL1        0.1435
     22 C          -1.1246   -1.2746   -7.9196 C.ar    1  UNL1       -0.0185
     23 C          -0.3299   -0.1441   -7.8588 C.ar    1  UNL1       -0.0582
     24 C           0.3299    0.1824   -6.6877 C.ar    1  UNL1       -0.0607
     25 C           0.1901   -0.6103   -5.5665 C.ar    1  UNL1       -0.0433
     26 C          -0.6253   -1.7462   -5.6122 C.ar    1  UNL1        0.1077
     27 C          -0.9779   -0.4147   -3.1692 C.3     1  UNL1        0.0989
     28 C          -2.2403    0.0037   -2.3965 C.3     1  UNL1        0.0592
     29 H          -3.1257   -0.2344   -2.9860 H       1  UNL1        0.0535
     30 C          -2.1975    1.5077   -2.1188 C.3     1  UNL1       -0.0429
     31 H          -3.2561   -1.0963    1.6960 H       1  UNL1        0.0323
     32 H          -1.6761   -1.7413    1.1902 H       1  UNL1        0.0323
     33 H          -1.7648   -0.2085    2.0906 H       1  UNL1        0.0323
     34 H          -2.1560   -2.5874   -0.1388 H       1  UNL1        0.0502
     35 H          -3.0922   -2.5965   -1.6562 H       1  UNL1        0.0502
     36 H          -0.0636   -2.3827   -1.3425 H       1  UNL1        0.0742
     37 H          -0.9837   -3.6914   -2.1297 H       1  UNL1        0.0742
     38 H           0.3391   -6.1255   -4.3173 H       1  UNL1        0.0662
     39 H           0.4818   -7.7259   -6.1771 H       1  UNL1        0.0624
     40 H          -1.8103   -5.1014   -8.6357 H       1  UNL1        0.0661
     41 H          -1.6361   -1.5254   -8.8371 H       1  UNL1        0.0654
     42 H          -0.2238    0.4862   -8.7295 H       1  UNL1        0.0619
     43 H           0.9572    1.0607   -6.6506 H       1  UNL1        0.0618
     44 H           0.7077   -0.3521   -4.6545 H       1  UNL1        0.0627
     45 H          -0.0929   -0.0200   -2.6700 H       1  UNL1        0.0744
     46 H          -1.0292   -0.0291   -4.1874 H       1  UNL1        0.0744
     47 H          -2.0569    2.0463   -3.0559 H       1  UNL1        0.0249
     48 H          -3.1350    1.8189   -1.6579 H       1  UNL1        0.0249
     49 H          -1.3701    1.7292   -1.4447 H       1  UNL1        0.0249
@<TRIPOS>BOND
     1     1     2    1
     2     1    31    1
     3     1    32    1
     4     1    33    1
     5     2     3    2
     6     2     4   am
     7     4    28    1
     8     4     5    1
     9     5     6    1
    10     5    34    1
    11     5    35    1
    12     6     7    1
    13     6    36    1
    14     6    37    1
    15     7     8    1
    16     7    27    1
    17     8    26    1
    18     8     9    2
    19     9    10    1
    20    10    19   ar
    21    10    11   ar
    22    11    12   ar
    23    11    38    1
    24    12    13   ar
    25    12    39    1
    26    13    14    1
    27    13    18   ar
    28    14    15    1
    29    14    16    1
    30    14    17    1
    31    18    19   ar
    32    18    40    1
    33    19    20    1
    34    20    21    1
    35    21    26   ar
    36    21    22   ar
    37    22    23   ar
    38    22    41    1
    39    23    24   ar
    40    23    42    1
    41    24    25   ar
    42    24    43    1
    43    25    26   ar
    44    25    44    1
    45    27    28    1
    46    27    45    1
    47    27    46    1
    48    28    29    1
    49    28    30    1
    50    30    47    1
    51    30    48    1
    52    30    49    1
