@<TRIPOS>MOLECULE
ZINC000575607637
 46 48 0 0 0
SMALL
GASTEIGER

@<TRIPOS>ATOM
      1 C          -0.0173    1.4248    0.0099 C.3     1  UNL1        0.0368
      2 O           0.0021   -0.0041    0.0020 O.3     1  UNL1       -0.3797
      3 C           0.6518   -0.5703   -1.1379 C.3     1  UNL1        0.0607
      4 C           2.1395   -0.7672   -0.8335 C.3     1  UNL1       -0.0137
      5 C           2.8176   -1.4296   -2.0350 C.3     1  UNL1        0.0016
      6 N           2.1796   -2.7241   -2.3065 N.3     1  UNL1       -0.2967
      7 C           2.8931   -3.4508   -3.3652 C.3     1  UNL1        0.0391
      8 C           3.9602   -4.4263   -2.8363 C.3     1  UNL1        0.0374
      9 N           3.4627   -5.3671   -3.8587 N.3     1  UNL1       -0.1735
     10 S           4.1177   -6.6554   -4.6671 S.O2    1  UNL1        0.0609
     11 O           3.3740   -6.7946   -5.8700 O.2     1  UNL1       -0.1528
     12 O           5.5265   -6.4712   -4.6413 O.2     1  UNL1       -0.1528
     13 C           3.7866   -8.0960   -3.7080 C.ar    1  UNL1        0.1055
     14 C           4.6850   -8.5030   -2.7395 C.ar    1  UNL1       -0.0348
     15 C           4.4253   -9.6331   -1.9870 C.ar    1  UNL1       -0.0483
     16 C           3.2670  -10.3560   -2.2028 C.ar    1  UNL1        0.0549
     17 C           2.9841  -11.5884   -1.3829 C.3     1  UNL1        0.4174
     18 F           2.2688  -11.2307   -0.2350 F       1  UNL1       -0.1659
     19 F           2.2291  -12.4897   -2.1409 F       1  UNL1       -0.1659
     20 F           4.1919  -12.1888   -1.0114 F       1  UNL1       -0.1659
     21 C           2.3680   -9.9483   -3.1705 C.ar    1  UNL1       -0.0483
     22 C           2.6258   -8.8160   -3.9203 C.ar    1  UNL1       -0.0348
     23 C           2.1470   -4.6987   -3.8713 C.3     1  UNL1        0.0374
     24 C           0.7612   -2.5558   -2.6477 C.3     1  UNL1        0.0016
     25 C           0.0217   -1.9271   -1.4645 C.3     1  UNL1       -0.0137
     26 H           1.0053    1.8021    0.0021 H       1  UNL1        0.0524
     27 H          -0.5445    1.7859   -0.8732 H       1  UNL1        0.0524
     28 H          -0.5275    1.7763    0.9067 H       1  UNL1        0.0524
     29 H           0.5390    0.0986   -1.9911 H       1  UNL1        0.0596
     30 H           2.6030    0.2006   -0.6420 H       1  UNL1        0.0302
     31 H           2.2502   -1.4045    0.0438 H       1  UNL1        0.0302
     32 H           2.7184   -0.7855   -2.9087 H       1  UNL1        0.0427
     33 H           3.8741   -1.5843   -1.8160 H       1  UNL1        0.0427
     34 H           3.2489   -2.7987   -4.1627 H       1  UNL1        0.0489
     35 H           4.9837   -4.0926   -3.0073 H       1  UNL1        0.0460
     36 H           3.7846   -4.7568   -1.8126 H       1  UNL1        0.0460
     37 H           5.5900   -7.9382   -2.5709 H       1  UNL1        0.0637
     38 H           5.1276   -9.9515   -1.2308 H       1  UNL1        0.0624
     39 H           1.4628  -10.5129   -3.3388 H       1  UNL1        0.0624
     40 H           1.9234   -8.4974   -4.6763 H       1  UNL1        0.0637
     41 H           1.4388   -5.1092   -3.1516 H       1  UNL1        0.0460
     42 H           1.7228   -4.5825   -4.8687 H       1  UNL1        0.0460
     43 H           0.6717   -1.9064   -3.5185 H       1  UNL1        0.0427
     44 H           0.3242   -3.5285   -2.8737 H       1  UNL1        0.0427
     45 H           0.0991   -2.5825   -0.5971 H       1  UNL1        0.0302
     46 H          -1.0278   -1.7879   -1.7237 H       1  UNL1        0.0302
@<TRIPOS>BOND
     1     1     2    1
     2     1    26    1
     3     1    27    1
     4     1    28    1
     5     2     3    1
     6     3    25    1
     7     3     4    1
     8     3    29    1
     9     4     5    1
    10     4    30    1
    11     4    31    1
    12     5     6    1
    13     5    32    1
    14     5    33    1
    15     6     7    1
    16     6    24    1
    17     7    23    1
    18     7     8    1
    19     7    34    1
    20     8     9    1
    21     8    35    1
    22     8    36    1
    23    10     9    1
    24     9    23    1
    25    10    11    2
    26    10    12    2
    27    10    13    1
    28    13    22   ar
    29    13    14   ar
    30    14    15   ar
    31    14    37    1
    32    15    16   ar
    33    15    38    1
    34    16    17    1
    35    16    21   ar
    36    17    18    1
    37    17    19    1
    38    17    20    1
    39    21    22   ar
    40    21    39    1
    41    22    40    1
    42    23    41    1
    43    23    42    1
    44    24    25    1
    45    24    43    1
    46    24    44    1
    47    25    45    1
    48    25    46    1
