@<TRIPOS>MOLECULE
ZINC000067338665
 43 44 0 0 0
SMALL
GASTEIGER

@<TRIPOS>ATOM
      1 C           0.8287    0.6540    0.7349 C.3     1  UNL1       -0.0362
      2 C           0.1298   -0.6013    0.2091 C.3     1  UNL1        0.1190
      3 H          -0.9478   -0.4968    0.3348 H       1  UNL1        0.0611
      4 C           0.6111   -1.8040    0.9790 C.2     1  UNL1        0.2376
      5 O           1.4175   -2.5604    0.4804 O.2     1  UNL1       -0.2735
      6 N           0.1456   -2.0391    2.2218 N.am    1  UNL1       -0.2999
      7 C          -0.7605   -1.1620    2.9775 C.3     1  UNL1        0.0148
      8 C          -0.9973   -1.8227    4.3519 C.3     1  UNL1       -0.0357
      9 C           0.2357   -2.7516    4.5080 C.3     1  UNL1       -0.0357
     10 C           0.4554   -3.2216    3.0460 C.3     1  UNL1        0.0148
     11 N           0.4411   -0.7746   -1.2120 N.pl3   1  UNL1       -0.1960
     12 C           1.7714   -0.8095   -1.6363 C.ar    1  UNL1        0.0522
     13 C           2.3796   -2.0254   -1.9205 C.ar    1  UNL1       -0.0390
     14 C           3.6951   -2.0564   -2.3404 C.ar    1  UNL1       -0.0594
     15 C           4.4065   -0.8787   -2.4777 C.ar    1  UNL1       -0.0500
     16 C           3.8041    0.3337   -2.1950 C.ar    1  UNL1        0.0566
     17 C           4.5833    1.6147   -2.3462 C.3     1  UNL1        0.4175
     18 F           5.8808    1.3228   -2.7804 F       1  UNL1       -0.1659
     19 F           3.9513    2.4370   -3.2851 F       1  UNL1       -0.1659
     20 F           4.6413    2.2735   -1.1134 F       1  UNL1       -0.1659
     21 C           2.4875    0.3723   -1.7804 C.ar    1  UNL1       -0.0274
     22 S          -0.7842   -0.9290   -2.3152 S.O2    1  UNL1        0.0432
     23 C          -1.0667    0.7588   -2.9171 C.3     1  UNL1        0.0738
     24 O          -0.2302   -1.7388   -3.3431 O.2     1  UNL1       -0.1552
     25 O          -1.8928   -1.3766   -1.5472 O.2     1  UNL1       -0.1552
     26 H           1.9031    0.5666    0.5728 H       1  UNL1        0.0253
     27 H           0.4514    1.5288    0.2053 H       1  UNL1        0.0253
     28 H           0.6297    0.7610    1.8012 H       1  UNL1        0.0253
     29 H          -0.3019   -0.1822    3.1113 H       1  UNL1        0.0464
     30 H          -1.7071   -1.0611    2.4467 H       1  UNL1        0.0464
     31 H          -1.0173   -1.0724    5.1423 H       1  UNL1        0.0281
     32 H          -1.9195   -2.4036    4.3468 H       1  UNL1        0.0281
     33 H           1.0983   -2.1971    4.8774 H       1  UNL1        0.0281
     34 H           0.0086   -3.5965    5.1581 H       1  UNL1        0.0281
     35 H          -0.2183   -4.0444    2.8067 H       1  UNL1        0.0464
     36 H           1.4921   -3.5231    2.8962 H       1  UNL1        0.0464
     37 H           1.8246   -2.9457   -1.8131 H       1  UNL1        0.0636
     38 H           4.1687   -3.0015   -2.5613 H       1  UNL1        0.0618
     39 H           5.4350   -0.9058   -2.8062 H       1  UNL1        0.0623
     40 H           2.0177    1.3194   -1.5598 H       1  UNL1        0.0642
     41 H          -0.1199    1.1933   -3.2381 H       1  UNL1        0.0482
     42 H          -1.7587    0.7333   -3.7588 H       1  UNL1        0.0482
     43 H          -1.4911    1.3640   -2.1160 H       1  UNL1        0.0482
@<TRIPOS>BOND
     1     1     2    1
     2     1    26    1
     3     1    27    1
     4     1    28    1
     5     2     3    1
     6     2     4    1
     7     2    11    1
     8     4     5    2
     9     4     6   am
    10     6    10    1
    11     6     7    1
    12     7     8    1
    13     7    29    1
    14     7    30    1
    15     8     9    1
    16     8    31    1
    17     8    32    1
    18     9    10    1
    19     9    33    1
    20     9    34    1
    21    10    35    1
    22    10    36    1
    23    11    12    1
    24    22    11    1
    25    12    21   ar
    26    12    13   ar
    27    13    14   ar
    28    13    37    1
    29    14    15   ar
    30    14    38    1
    31    15    16   ar
    32    15    39    1
    33    16    17    1
    34    16    21   ar
    35    17    18    1
    36    17    19    1
    37    17    20    1
    38    21    40    1
    39    22    23    1
    40    22    24    2
    41    22    25    2
    42    23    41    1
    43    23    42    1
    44    23    43    1
