@<TRIPOS>MOLECULE
ZINC000065363830
 44 45 0 0 0
SMALL
GASTEIGER

@<TRIPOS>ATOM
      1 C           0.5261    1.0819    0.3526 C.3     1  UNL1       -0.0362
      2 C           0.0837   -0.3653    0.1274 C.3     1  UNL1        0.1190
      3 H          -1.0007   -0.4316    0.2154 H       1  UNL1        0.0611
      4 C           0.7268   -1.2538    1.1609 C.2     1  UNL1        0.2377
      5 O           1.7023   -1.9135    0.8709 O.2     1  UNL1       -0.2735
      6 N           0.2179   -1.3152    2.4074 N.am    1  UNL1       -0.2955
      7 C          -0.9125   -0.4621    2.8070 C.3     1  UNL1        0.0382
      8 C          -1.9835   -1.3492    3.4518 C.3     1  UNL1        0.0635
      9 O          -1.3844   -2.1346    4.4853 O.3     1  UNL1       -0.3767
     10 C          -0.3773   -3.0385    4.0243 C.3     1  UNL1        0.0635
     11 C           0.7723   -2.2419    3.4071 C.3     1  UNL1        0.0382
     12 N           0.4924   -0.7982   -1.2112 N.pl3   1  UNL1       -0.1960
     13 C           1.8461   -0.8222   -1.5544 C.ar    1  UNL1        0.0522
     14 C           2.4805   -2.0331   -1.8001 C.ar    1  UNL1       -0.0390
     15 C           3.8192   -2.0531   -2.1398 C.ar    1  UNL1       -0.0594
     16 C           4.5276   -0.8696   -2.2354 C.ar    1  UNL1       -0.0500
     17 C           3.8990    0.3379   -1.9910 C.ar    1  UNL1        0.0566
     18 C           4.6752    1.6253   -2.0964 C.3     1  UNL1        0.4175
     19 F           5.9989    1.3441   -2.4513 F       1  UNL1       -0.1659
     20 F           4.0940    2.4416   -3.0727 F       1  UNL1       -0.1659
     21 F           4.6532    2.2855   -0.8631 F       1  UNL1       -0.1659
     22 C           2.5596    0.3656   -1.6565 C.ar    1  UNL1       -0.0274
     23 S          -0.6506   -1.2591   -2.3173 S.O2    1  UNL1        0.0432
     24 C          -0.9991    0.2489   -3.2633 C.3     1  UNL1        0.0738
     25 O           0.0147   -2.2155   -3.1308 O.2     1  UNL1       -0.1552
     26 O          -1.7748   -1.6238   -1.5283 O.2     1  UNL1       -0.1552
     27 H           1.6146    1.1280    0.3869 H       1  UNL1        0.0253
     28 H           0.1616    1.7046   -0.4644 H       1  UNL1        0.0253
     29 H           0.1172    1.4442    1.2959 H       1  UNL1        0.0253
     30 H          -0.5731    0.2845    3.5251 H       1  UNL1        0.0487
     31 H          -1.3264    0.0339    1.9290 H       1  UNL1        0.0487
     32 H          -2.7668   -0.7226    3.8784 H       1  UNL1        0.0575
     33 H          -2.4135   -2.0077    2.6971 H       1  UNL1        0.0575
     34 H          -0.0051   -3.6272    4.8627 H       1  UNL1        0.0575
     35 H          -0.8015   -3.7031    3.2717 H       1  UNL1        0.0575
     36 H           1.4755   -2.9232    2.9281 H       1  UNL1        0.0487
     37 H           1.2830   -1.6726    4.1838 H       1  UNL1        0.0487
     38 H           1.9278   -2.9579   -1.7252 H       1  UNL1        0.0636
     39 H           4.3132   -2.9944   -2.3306 H       1  UNL1        0.0618
     40 H           5.5742   -0.8881   -2.5012 H       1  UNL1        0.0623
     41 H           2.0693    1.3088   -1.4658 H       1  UNL1        0.0642
     42 H          -0.0630    0.6783   -3.6203 H       1  UNL1        0.0482
     43 H          -1.6349    0.0051   -4.1144 H       1  UNL1        0.0482
     44 H          -1.5087    0.9695   -2.6236 H       1  UNL1        0.0482
@<TRIPOS>BOND
     1     1     2    1
     2     1    27    1
     3     1    28    1
     4     1    29    1
     5     2     3    1
     6     2     4    1
     7     2    12    1
     8     4     5    2
     9     4     6   am
    10     6    11    1
    11     6     7    1
    12     7     8    1
    13     7    30    1
    14     7    31    1
    15     8     9    1
    16     8    32    1
    17     8    33    1
    18     9    10    1
    19    10    11    1
    20    10    34    1
    21    10    35    1
    22    11    36    1
    23    11    37    1
    24    12    13    1
    25    23    12    1
    26    13    22   ar
    27    13    14   ar
    28    14    15   ar
    29    14    38    1
    30    15    16   ar
    31    15    39    1
    32    16    17   ar
    33    16    40    1
    34    17    18    1
    35    17    22   ar
    36    18    19    1
    37    18    20    1
    38    18    21    1
    39    22    41    1
    40    23    24    1
    41    23    25    2
    42    23    26    2
    43    24    42    1
    44    24    43    1
    45    24    44    1
