@<TRIPOS>MOLECULE
ZINC000267822486
 34 35 0 0 0
SMALL
GASTEIGER

@<TRIPOS>ATOM
      1 C          -0.0173    1.4248    0.0099 C.3     1  UNL1        0.0369
      2 O           0.0021   -0.0041    0.0020 O.3     1  UNL1       -0.3784
      3 C           0.6518   -0.5703   -1.1379 C.3     1  UNL1        0.0738
      4 H           0.5588    0.0896   -2.0004 H       1  UNL1        0.0609
      5 C           2.1439   -0.8639   -0.8297 C.3     1  UNL1       -0.0109
      6 C           2.4455   -2.0151   -1.8214 C.3     1  UNL1        0.0230
      7 N           1.2120   -2.8220   -1.8494 N.3     1  UNL1       -0.1740
      8 S           1.1154   -4.4235   -2.2596 S.O2    1  UNL1        0.0609
      9 O          -0.2212   -4.6485   -2.6864 O.2     1  UNL1       -0.1528
     10 O           2.2477   -4.6984   -3.0729 O.2     1  UNL1       -0.1528
     11 C           1.3284   -5.3548   -0.7791 C.ar    1  UNL1        0.1055
     12 C           2.5950   -5.7392   -0.3805 C.ar    1  UNL1       -0.0348
     13 C           2.7620   -6.4699    0.7810 C.ar    1  UNL1       -0.0483
     14 C           1.6626   -6.8158    1.5442 C.ar    1  UNL1        0.0549
     15 C           1.8447   -7.6128    2.8101 C.3     1  UNL1        0.4174
     16 F           2.0256   -6.7401    3.8886 F       1  UNL1       -0.1659
     17 F           0.7100   -8.4003    3.0327 F       1  UNL1       -0.1659
     18 F           2.9675   -8.4377    2.6844 F       1  UNL1       -0.1659
     19 C           0.3961   -6.4302    1.1463 C.ar    1  UNL1       -0.0483
     20 C           0.2294   -5.6963   -0.0132 C.ar    1  UNL1       -0.0348
     21 C           0.0786   -1.9675   -1.4550 C.3     1  UNL1        0.0468
     22 H           1.0053    1.8021    0.0021 H       1  UNL1        0.0524
     23 H          -0.5445    1.7859   -0.8732 H       1  UNL1        0.0524
     24 H          -0.5275    1.7763    0.9067 H       1  UNL1        0.0524
     25 H           2.7650    0.0065   -1.0409 H       1  UNL1        0.0303
     26 H           2.2725   -1.1928    0.2015 H       1  UNL1        0.0303
     27 H           2.6601   -1.6156   -2.8126 H       1  UNL1        0.0445
     28 H           3.2827   -2.6144   -1.4636 H       1  UNL1        0.0445
     29 H           3.4540   -5.4690   -0.9767 H       1  UNL1        0.0637
     30 H           3.7515   -6.7708    1.0920 H       1  UNL1        0.0624
     31 H          -0.4629   -6.7001    1.7427 H       1  UNL1        0.0624
     32 H          -0.7601   -5.3950   -0.3240 H       1  UNL1        0.0637
     33 H          -0.4039   -2.3779   -0.5679 H       1  UNL1        0.0469
     34 H          -0.6388   -1.9024   -2.2731 H       1  UNL1        0.0469
@<TRIPOS>BOND
     1     1     2    1
     2     1    22    1
     3     1    23    1
     4     1    24    1
     5     2     3    1
     6     3     4    1
     7     3    21    1
     8     3     5    1
     9     5     6    1
    10     5    25    1
    11     5    26    1
    12     6     7    1
    13     6    27    1
    14     6    28    1
    15     8     7    1
    16     7    21    1
    17     8     9    2
    18     8    10    2
    19     8    11    1
    20    11    20   ar
    21    11    12   ar
    22    12    13   ar
    23    12    29    1
    24    13    14   ar
    25    13    30    1
    26    14    15    1
    27    14    19   ar
    28    15    16    1
    29    15    17    1
    30    15    18    1
    31    19    20   ar
    32    19    31    1
    33    20    32    1
    34    21    33    1
    35    21    34    1
