@<TRIPOS>MOLECULE
ZINC000001061237
 48 50 0 0 0
SMALL
GASTEIGER

@<TRIPOS>ATOM
      1 C           8.2744   -5.8911    5.7897 C.3     1  UNL1        0.0789
      2 O           7.8990   -4.5731    6.1944 O.3     1  UNL1       -0.4936
      3 C           6.6804   -4.1270    5.7900 C.ar    1  UNL1        0.1384
      4 C           5.8610   -4.9428    5.0247 C.ar    1  UNL1       -0.0166
      5 C           4.6223   -4.4873    4.6150 C.ar    1  UNL1       -0.0318
      6 C           4.1994   -3.2192    4.9668 C.ar    1  UNL1        0.1071
      7 S           2.6193   -2.6420    4.4425 S.O2    1  UNL1        0.0616
      8 O           2.6941   -1.2230    4.4306 O.2     1  UNL1       -0.1528
      9 O           2.2699   -3.4114    3.3001 O.2     1  UNL1       -0.1528
     10 N           1.5333   -3.0431    5.6266 N.3     1  UNL1       -0.1635
     11 C           0.9400   -4.3823    5.6531 C.3     1  UNL1        0.0971
     12 C           1.7328   -5.2646    6.5827 C.2     1  UNL1        0.2290
     13 O           2.6983   -4.8187    7.1656 O.2     1  UNL1       -0.2743
     14 N           1.3688   -6.5493    6.7663 N.am    1  UNL1       -0.3114
     15 C           2.1395   -7.4070    7.6699 C.3     1  UNL1        0.0233
     16 C           1.3570   -8.3122    8.6234 C.3     1  UNL1       -0.0328
     17 C           2.0906   -8.9163    7.4243 C.3     1  UNL1       -0.0328
     18 C           1.1658   -2.0588    6.6474 C.3     1  UNL1        0.0460
     19 C          -0.1071   -1.3630    6.2392 C.ar    1  UNL1       -0.0317
     20 C          -0.0503   -0.1551    5.5694 C.ar    1  UNL1       -0.0573
     21 C          -1.2179    0.4831    5.1949 C.ar    1  UNL1       -0.0615
     22 C          -2.4423   -0.0867    5.4899 C.ar    1  UNL1       -0.0617
     23 C          -2.4991   -1.2950    6.1590 C.ar    1  UNL1       -0.0615
     24 C          -1.3314   -1.9354    6.5297 C.ar    1  UNL1       -0.0573
     25 C           5.0140   -2.4028    5.7300 C.ar    1  UNL1       -0.0134
     26 C           6.2515   -2.8555    6.1472 C.ar    1  UNL1        0.0844
     27 CL          7.2740   -1.8307    7.1052 Cl      1  UNL1       -0.0797
     28 H           8.2887   -5.9468    4.7012 H       1  UNL1        0.0660
     29 H           9.2663   -6.1219    6.1783 H       1  UNL1        0.0660
     30 H           7.5547   -6.6102    6.1809 H       1  UNL1        0.0660
     31 H           6.1908   -5.9335    4.7486 H       1  UNL1        0.0655
     32 H           3.9840   -5.1227    4.0189 H       1  UNL1        0.0638
     33 H          -0.0897   -4.3166    6.0046 H       1  UNL1        0.0539
     34 H           0.9548   -4.8063    4.6491 H       1  UNL1        0.0539
     35 H           0.5966   -6.9059    6.3001 H       1  UNL1        0.1490
     36 H           3.0777   -6.9861    8.0314 H       1  UNL1        0.0498
     37 H           1.7803   -8.4869    9.6125 H       1  UNL1        0.0284
     38 H           0.2688   -8.2696    8.5783 H       1  UNL1        0.0284
     39 H           1.4850   -9.2712    6.5904 H       1  UNL1        0.0284
     40 H           2.9965   -9.4885    7.6246 H       1  UNL1        0.0284
     41 H           1.0139   -2.5640    7.6013 H       1  UNL1        0.0493
     42 H           1.9650   -1.3244    6.7484 H       1  UNL1        0.0493
     43 H           0.9063    0.2901    5.3389 H       1  UNL1        0.0621
     44 H          -1.1736    1.4272    4.6722 H       1  UNL1        0.0618
     45 H          -3.3545    0.4123    5.1980 H       1  UNL1        0.0618
     46 H          -3.4557   -1.7401    6.3898 H       1  UNL1        0.0618
     47 H          -1.3757   -2.8794    7.0524 H       1  UNL1        0.0621
     48 H           4.6814   -1.4124    6.0036 H       1  UNL1        0.0653
@<TRIPOS>BOND
     1     1     2    1
     2     1    28    1
     3     1    29    1
     4     1    30    1
     5     2     3    1
     6     3    26   ar
     7     3     4   ar
     8     4     5   ar
     9     4    31    1
    10     5     6   ar
    11     5    32    1
    12     6     7    1
    13     6    25   ar
    14     7     8    2
    15     7     9    2
    16     7    10    1
    17    10    11    1
    18    10    18    1
    19    11    12    1
    20    11    33    1
    21    11    34    1
    22    12    13    2
    23    12    14   am
    24    14    15    1
    25    14    35    1
    26    15    17    1
    27    15    16    1
    28    15    36    1
    29    16    17    1
    30    16    37    1
    31    16    38    1
    32    17    39    1
    33    17    40    1
    34    18    19    1
    35    18    41    1
    36    18    42    1
    37    19    24   ar
    38    19    20   ar
    39    20    21   ar
    40    20    43    1
    41    21    22   ar
    42    21    44    1
    43    22    23   ar
    44    22    45    1
    45    23    24   ar
    46    23    46    1
    47    24    47    1
    48    25    26   ar
    49    25    48    1
    50    26    27    1
