@<TRIPOS>MOLECULE
ZINC000185955228
 42 43 0 0 0
SMALL
GASTEIGER

@<TRIPOS>ATOM
      1 C           1.2028    1.9841   -0.1575 C.3     1  UNL1       -0.0585
      2 C           1.3941    0.4705   -0.0427 C.3     1  UNL1        0.0046
      3 C           0.7840   -0.2054   -1.2436 C.2     1  UNL1        0.1517
      4 O           0.2512    0.4554   -2.1026 O.2     1  UNL1       -0.2957
      5 C           0.8388   -1.7058   -1.3726 C.3     1  UNL1        0.0898
      6 H           1.1485   -2.1431   -0.4234 H       1  UNL1        0.0558
      7 C          -0.5450   -2.2392   -1.7565 C.3     1  UNL1       -0.0288
      8 C          -0.4519   -3.7436   -2.0216 C.3     1  UNL1       -0.0500
      9 C           0.5050   -3.9994   -3.1882 C.3     1  UNL1       -0.0385
     10 C           1.9007   -3.4861   -2.8205 C.3     1  UNL1        0.0213
     11 N           1.7989   -2.0753   -2.4216 N.3     1  UNL1       -0.1664
     12 S           2.7437   -0.9236   -3.1451 S.O2    1  UNL1        0.0627
     13 O           2.9729    0.0804   -2.1660 O.2     1  UNL1       -0.1528
     14 O           3.7922   -1.6206   -3.8038 O.2     1  UNL1       -0.1528
     15 C           1.7738   -0.1728   -4.4101 C.ar    1  UNL1        0.1228
     16 C           1.4025    1.1512   -4.3024 C.ar    1  UNL1       -0.0335
     17 C           0.6408    1.7424   -5.2950 C.ar    1  UNL1       -0.0482
     18 C           0.2461    1.0111   -6.4010 C.ar    1  UNL1        0.0561
     19 C          -0.5833    1.6636   -7.4768 C.3     1  UNL1        0.4175
     20 F          -0.8236    2.9988   -7.1350 F       1  UNL1       -0.1659
     21 F           0.1055    1.6104   -8.6933 F       1  UNL1       -0.1659
     22 F          -1.8017    0.9874   -7.6008 F       1  UNL1       -0.1659
     23 C           0.6105   -0.3141   -6.5216 C.ar    1  UNL1       -0.0308
     24 C           1.3842   -0.9152   -5.5269 C.ar    1  UNL1        0.0786
     25 C           1.7661   -2.2902   -5.6454 C.1     1  UNL1        0.1011
     26 N           2.0691   -3.3811   -5.7394 N.1     1  UNL1       -0.1908
     27 H           1.6900    2.3443   -1.0636 H       1  UNL1        0.0234
     28 H           0.1381    2.2135   -0.2016 H       1  UNL1        0.0234
     29 H           1.6440    2.4730    0.7111 H       1  UNL1        0.0234
     30 H           2.4587    0.2411    0.0014 H       1  UNL1        0.0339
     31 H           0.9069    0.1103    0.8634 H       1  UNL1        0.0339
     32 H          -1.2446   -2.0561   -0.9409 H       1  UNL1        0.0285
     33 H          -0.8936   -1.7321   -2.6562 H       1  UNL1        0.0285
     34 H          -0.0798   -4.2472   -1.1295 H       1  UNL1        0.0266
     35 H          -1.4401   -4.1301   -2.2710 H       1  UNL1        0.0266
     36 H           0.5528   -5.0692   -3.3916 H       1  UNL1        0.0278
     37 H           0.1465   -3.4758   -4.0744 H       1  UNL1        0.0278
     38 H           2.2981   -4.0704   -1.9906 H       1  UNL1        0.0444
     39 H           2.5618   -3.5754   -3.6826 H       1  UNL1        0.0444
     40 H           1.7066    1.7277   -3.4413 H       1  UNL1        0.0637
     41 H           0.3527    2.7795   -5.2056 H       1  UNL1        0.0624
     42 H           0.3014   -0.8840   -7.3853 H       1  UNL1        0.0636
@<TRIPOS>BOND
     1     1     2    1
     2     1    27    1
     3     1    28    1
     4     1    29    1
     5     2     3    1
     6     2    30    1
     7     2    31    1
     8     3     4    2
     9     3     5    1
    10     5     6    1
    11     5    11    1
    12     5     7    1
    13     7     8    1
    14     7    32    1
    15     7    33    1
    16     8     9    1
    17     8    34    1
    18     8    35    1
    19     9    10    1
    20     9    36    1
    21     9    37    1
    22    10    11    1
    23    10    38    1
    24    10    39    1
    25    12    11    1
    26    12    13    2
    27    12    14    2
    28    12    15    1
    29    15    24   ar
    30    15    16   ar
    31    16    17   ar
    32    16    40    1
    33    17    18   ar
    34    17    41    1
    35    18    19    1
    36    18    23   ar
    37    19    20    1
    38    19    21    1
    39    19    22    1
    40    23    24   ar
    41    23    42    1
    42    24    25    1
    43    25    26    3
