@<TRIPOS>MOLECULE
ZINC000096025560
 46 48 0 0 0
SMALL
GASTEIGER

@<TRIPOS>ATOM
      1 O          -0.3995    4.1972   -0.6620 O.2     1  UNL1       -0.1693
      2 S          -1.6819    3.5885   -0.7263 S.O2    1  UNL1       -0.0016
      3 O          -2.7443    4.1930   -1.4511 O.2     1  UNL1       -0.1693
      4 C          -1.5325    1.8337   -1.1608 C.3     1  UNL1        0.0880
      5 C          -0.8952    1.7036   -2.5457 C.3     1  UNL1        0.0516
      6 H           0.1002    2.1476   -2.5387 H       1  UNL1        0.0496
      7 C          -1.7771    2.4089   -3.5976 C.3     1  UNL1       -0.0330
      8 C          -1.6768    1.4647   -4.8247 C.3     1  UNL1       -0.0370
      9 C          -1.6158    0.0748   -4.1434 C.3     1  UNL1        0.0209
     10 N          -0.8077    0.2858   -2.9247 N.3     1  UNL1       -0.1720
     11 S           0.0498   -0.8810   -2.1212 S.O2    1  UNL1        0.0611
     12 O           0.3104   -0.3651   -0.8230 O.2     1  UNL1       -0.1528
     13 O          -0.6316   -2.1073   -2.3478 O.2     1  UNL1       -0.1528
     14 C           1.6125   -1.0247   -2.9224 C.ar    1  UNL1        0.1055
     15 C           1.7728   -1.9114   -3.9707 C.ar    1  UNL1       -0.0348
     16 C           2.9987   -2.0241   -4.5993 C.ar    1  UNL1       -0.0483
     17 C           4.0643   -1.2498   -4.1800 C.ar    1  UNL1        0.0549
     18 C           5.4010   -1.3730   -4.8650 C.3     1  UNL1        0.4174
     19 F           5.4646   -0.4677   -5.9296 F       1  UNL1       -0.1659
     20 F           6.4213   -1.0901   -3.9506 F       1  UNL1       -0.1659
     21 F           5.5578   -2.6757   -5.3505 F       1  UNL1       -0.1659
     22 C           3.9036   -0.3621   -3.1326 C.ar    1  UNL1       -0.0483
     23 C           2.6766   -0.2466   -2.5064 C.ar    1  UNL1       -0.0348
     24 C          -2.2439    3.5817    0.9436 C.ar    1  UNL1        0.0882
     25 C          -3.5990    3.5712    1.2168 C.ar    1  UNL1       -0.0369
     26 C          -4.0399    3.5659    2.5270 C.ar    1  UNL1       -0.0600
     27 C          -3.1257    3.5705    3.5639 C.ar    1  UNL1       -0.0616
     28 C          -1.7707    3.5800    3.2907 C.ar    1  UNL1       -0.0600
     29 C          -1.3297    3.5811    1.9805 C.ar    1  UNL1       -0.0369
     30 H          -0.9072    1.3290   -0.4243 H       1  UNL1        0.0520
     31 H          -2.5220    1.3766   -1.1718 H       1  UNL1        0.0520
     32 H          -2.8078    2.4818   -3.2504 H       1  UNL1        0.0282
     33 H          -1.3788    3.3950   -3.8362 H       1  UNL1        0.0282
     34 H          -2.5600    1.5512   -5.4575 H       1  UNL1        0.0279
     35 H          -0.7687    1.6604   -5.3950 H       1  UNL1        0.0279
     36 H          -2.6183   -0.2636   -3.8815 H       1  UNL1        0.0444
     37 H          -1.1297   -0.6479   -4.7988 H       1  UNL1        0.0444
     38 H           0.9403   -2.5164   -4.2984 H       1  UNL1        0.0637
     39 H           3.1242   -2.7174   -5.4179 H       1  UNL1        0.0624
     40 H           4.7360    0.2432   -2.8052 H       1  UNL1        0.0624
     41 H           2.5511    0.4469   -1.6881 H       1  UNL1        0.0637
     42 H          -4.3132    3.5676    0.4067 H       1  UNL1        0.0636
     43 H          -5.0985    3.5584    2.7404 H       1  UNL1        0.0618
     44 H          -3.4702    3.5670    4.5875 H       1  UNL1        0.0618
     45 H          -1.0565    3.5840    4.1008 H       1  UNL1        0.0618
     46 H          -0.2711    3.5885    1.7671 H       1  UNL1        0.0636
@<TRIPOS>BOND
     1     1     2    2
     2     2     3    2
     3     2     4    1
     4     2    24    1
     5     4     5    1
     6     4    30    1
     7     4    31    1
     8     5     6    1
     9     5    10    1
    10     5     7    1
    11     7     8    1
    12     7    32    1
    13     7    33    1
    14     8     9    1
    15     8    34    1
    16     8    35    1
    17     9    10    1
    18     9    36    1
    19     9    37    1
    20    11    10    1
    21    11    12    2
    22    11    13    2
    23    11    14    1
    24    14    23   ar
    25    14    15   ar
    26    15    16   ar
    27    15    38    1
    28    16    17   ar
    29    16    39    1
    30    17    18    1
    31    17    22   ar
    32    18    19    1
    33    18    20    1
    34    18    21    1
    35    22    23   ar
    36    22    40    1
    37    23    41    1
    38    24    29   ar
    39    24    25   ar
    40    25    26   ar
    41    25    42    1
    42    26    27   ar
    43    26    43    1
    44    27    28   ar
    45    27    44    1
    46    28    29   ar
    47    28    45    1
    48    29    46    1
