@<TRIPOS>MOLECULE
ZINC000028207182
 43 43 0 0 0
SMALL
GASTEIGER

@<TRIPOS>ATOM
      1 C          -0.0187    1.5258    0.0104 C.3     1  UNL1       -0.0636
      2 C           0.0021   -0.0041    0.0020 C.3     1  UNL1       -0.0376
      3 C          -1.4333   -0.5336    0.0129 C.3     1  UNL1        0.0202
      4 H          -1.9701   -0.1109    0.8621 H       1  UNL1        0.0495
      5 C          -1.4133   -2.0590    0.1302 C.3     1  UNL1       -0.0466
      6 N          -2.1054   -0.1483   -1.2305 N.am    1  UNL1       -0.3099
      7 C          -3.4483   -0.0395   -1.2649 C.2     1  UNL1        0.2509
      8 O          -4.1004   -0.2606   -0.2665 O.2     1  UNL1       -0.2721
      9 C          -4.1397    0.3569   -2.5439 C.3     1  UNL1        0.1651
     10 O          -5.5515    0.4032   -2.3277 O.3     1  UNL1       -0.4828
     11 C          -6.3273    0.7471   -3.3892 C.ar    1  UNL1        0.1213
     12 C          -5.7422    1.0285   -4.6152 C.ar    1  UNL1       -0.0181
     13 C          -6.5330    1.3774   -5.6928 C.ar    1  UNL1       -0.0319
     14 C          -7.9066    1.4467   -5.5501 C.ar    1  UNL1        0.1057
     15 S          -8.9124    1.8926   -6.9263 S.O2    1  UNL1        0.0604
     16 O         -10.1222    2.4088   -6.3886 O.2     1  UNL1       -0.1529
     17 O          -8.0787    2.6286   -7.8109 O.2     1  UNL1       -0.1529
     18 N          -9.3114    0.4927   -7.7159 N.3     1  UNL1       -0.1827
     19 C         -10.5251   -0.2381   -7.3432 C.3     1  UNL1        0.0086
     20 C          -8.4505   -0.0150   -8.7871 C.3     1  UNL1        0.0086
     21 C          -8.4921    1.1663   -4.3294 C.ar    1  UNL1       -0.0319
     22 C          -7.7061    0.8118   -3.2501 C.ar    1  UNL1       -0.0181
     23 H           1.0039    1.9031    0.0027 H       1  UNL1        0.0230
     24 H          -0.5459    1.8868   -0.8726 H       1  UNL1        0.0230
     25 H          -0.5289    1.8773    0.9072 H       1  UNL1        0.0230
     26 H           0.5123   -0.3556   -0.8948 H       1  UNL1        0.0280
     27 H           0.5293   -0.3651    0.8851 H       1  UNL1        0.0280
     28 H          -2.4359   -2.4363    0.1380 H       1  UNL1        0.0247
     29 H          -0.8764   -2.4817   -0.7190 H       1  UNL1        0.0247
     30 H          -0.9132   -2.3457    1.0553 H       1  UNL1        0.0247
     31 H          -1.5839    0.0285   -2.0291 H       1  UNL1        0.1491
     32 H          -3.7878    1.3396   -2.8577 H       1  UNL1        0.0795
     33 H          -3.9148   -0.3745   -3.3202 H       1  UNL1        0.0795
     34 H          -4.6693    0.9752   -4.7270 H       1  UNL1        0.0655
     35 H          -6.0780    1.5966   -6.6474 H       1  UNL1        0.0638
     36 H         -11.3636    0.1221   -7.9392 H       1  UNL1        0.0408
     37 H         -10.3793   -1.3025   -7.5272 H       1  UNL1        0.0408
     38 H         -10.7356   -0.0777   -6.2858 H       1  UNL1        0.0408
     39 H          -7.6996   -0.6823   -8.3643 H       1  UNL1        0.0408
     40 H          -9.0553   -0.5608   -9.5113 H       1  UNL1        0.0408
     41 H          -7.9563    0.8206   -9.2828 H       1  UNL1        0.0408
     42 H          -9.5653    1.2207   -4.2205 H       1  UNL1        0.0638
     43 H          -8.1640    0.5928   -2.2968 H       1  UNL1        0.0655
@<TRIPOS>BOND
     1     1     2    1
     2     1    23    1
     3     1    24    1
     4     1    25    1
     5     2     3    1
     6     2    26    1
     7     2    27    1
     8     3     4    1
     9     3     5    1
    10     3     6    1
    11     5    28    1
    12     5    29    1
    13     5    30    1
    14     6     7   am
    15     6    31    1
    16     7     8    2
    17     7     9    1
    18     9    10    1
    19     9    32    1
    20     9    33    1
    21    10    11    1
    22    11    22   ar
    23    11    12   ar
    24    12    13   ar
    25    12    34    1
    26    13    14   ar
    27    13    35    1
    28    14    15    1
    29    14    21   ar
    30    15    16    2
    31    15    17    2
    32    15    18    1
    33    18    19    1
    34    18    20    1
    35    19    36    1
    36    19    37    1
    37    19    38    1
    38    20    39    1
    39    20    40    1
    40    20    41    1
    41    21    22   ar
    42    21    42    1
    43    22    43    1
