@<TRIPOS>MOLECULE
ZINC000408600670
 59 60 0 0 0
SMALL
GASTEIGER

@<TRIPOS>ATOM
      1 C          -0.0187    1.5258    0.0104 C.3     1  UNL1       -0.0507
      2 C           0.0021   -0.0041    0.0020 C.3     1  UNL1        0.0177
      3 N           0.6878   -0.4765   -1.2033 N.3     1  UNL1       -0.1771
      4 C           2.1478   -0.5966   -1.2159 C.3     1  UNL1        0.0177
      5 C           2.5532   -1.9514   -0.6319 C.3     1  UNL1       -0.0507
      6 S          -0.1875   -0.8749   -2.5515 S.O2    1  UNL1        0.0608
      7 O           0.6166   -1.7761   -3.3001 O.2     1  UNL1       -0.1528
      8 O          -1.4970   -1.1925   -2.1004 O.2     1  UNL1       -0.1528
      9 C          -0.3375    0.5853   -3.5262 C.ar    1  UNL1        0.1057
     10 C          -1.4064    1.4399   -3.3289 C.ar    1  UNL1       -0.0319
     11 C          -1.5263    2.5854   -4.0918 C.ar    1  UNL1       -0.0181
     12 C          -0.5728    2.8781   -5.0561 C.ar    1  UNL1        0.1213
     13 O          -0.6883    4.0045   -5.8076 O.3     1  UNL1       -0.4828
     14 C           0.3301    4.2420   -6.7815 C.3     1  UNL1        0.1651
     15 C           0.0367    5.5269   -7.5122 C.2     1  UNL1        0.2509
     16 O          -0.9477    6.1755   -7.2270 O.2     1  UNL1       -0.2721
     17 N           0.8681    5.9553   -8.4825 N.am    1  UNL1       -0.3099
     18 C           0.5828    7.2044   -9.1929 C.3     1  UNL1        0.0207
     19 H          -0.4951    7.3206   -9.3050 H       1  UNL1        0.0495
     20 C           1.1427    8.3840   -8.3953 C.3     1  UNL1       -0.0466
     21 C           1.2381    7.1663  -10.5749 C.3     1  UNL1       -0.0308
     22 C           0.5901    6.0650  -11.4164 C.3     1  UNL1       -0.0260
     23 C           1.2356    6.0275  -12.7777 C.ar    1  UNL1       -0.0473
     24 C           0.7269    6.7995  -13.8054 C.ar    1  UNL1       -0.0586
     25 C           1.3189    6.7651  -15.0540 C.ar    1  UNL1       -0.0615
     26 C           2.4200    5.9590  -15.2749 C.ar    1  UNL1       -0.0617
     27 C           2.9292    5.1877  -14.2470 C.ar    1  UNL1       -0.0615
     28 C           2.3398    5.2253  -12.9972 C.ar    1  UNL1       -0.0586
     29 C           0.4989    2.0192   -5.2518 C.ar    1  UNL1       -0.0181
     30 C           0.6169    0.8775   -4.4830 C.ar    1  UNL1       -0.0319
     31 H           1.0039    1.9031    0.0027 H       1  UNL1        0.0243
     32 H          -0.5459    1.8868   -0.8726 H       1  UNL1        0.0243
     33 H          -0.5289    1.8773    0.9072 H       1  UNL1        0.0243
     34 H           0.5293   -0.3651    0.8851 H       1  UNL1        0.0441
     35 H          -1.0205   -0.3814    0.0098 H       1  UNL1        0.0441
     36 H           2.5098   -0.5199   -2.2412 H       1  UNL1        0.0441
     37 H           2.5833    0.2026   -0.6162 H       1  UNL1        0.0441
     38 H           2.1177   -2.7506   -1.2316 H       1  UNL1        0.0243
     39 H           3.6395   -2.0407   -0.6413 H       1  UNL1        0.0243
     40 H           2.1912   -2.0280    0.3934 H       1  UNL1        0.0243
     41 H          -2.1483    1.2116   -2.5781 H       1  UNL1        0.0638
     42 H          -2.3617    3.2523   -3.9379 H       1  UNL1        0.0655
     43 H           1.2971    4.3193   -6.2845 H       1  UNL1        0.0795
     44 H           0.3522    3.4164   -7.4928 H       1  UNL1        0.0795
     45 H           1.6554    5.4366   -8.7106 H       1  UNL1        0.1491
     46 H           0.9304    9.3133   -8.9238 H       1  UNL1        0.0247
     47 H           0.6758    8.4111   -7.4107 H       1  UNL1        0.0247
     48 H           2.2207    8.2678   -8.2832 H       1  UNL1        0.0247
     49 H           1.1016    8.1285  -11.0684 H       1  UNL1        0.0286
     50 H           2.3032    6.9615  -10.4665 H       1  UNL1        0.0286
     51 H           0.7266    5.1028  -10.9229 H       1  UNL1        0.0314
     52 H          -0.4750    6.2699  -11.5249 H       1  UNL1        0.0314
     53 H          -0.1334    7.4293  -13.6328 H       1  UNL1        0.0620
     54 H           0.9211    7.3677  -15.8571 H       1  UNL1        0.0618
     55 H           2.8821    5.9315  -16.2506 H       1  UNL1        0.0618
     56 H           3.7893    4.5576  -14.4196 H       1  UNL1        0.0618
     57 H           2.7376    4.6227  -12.1941 H       1  UNL1        0.0620
     58 H           1.2423    2.2447   -6.0021 H       1  UNL1        0.0655
     59 H           1.4512    0.2087   -4.6347 H       1  UNL1        0.0638
@<TRIPOS>BOND
     1     1     2    1
     2     1    31    1
     3     1    32    1
     4     1    33    1
     5     2     3    1
     6     2    34    1
     7     2    35    1
     8     3     4    1
     9     6     3    1
    10     4     5    1
    11     4    36    1
    12     4    37    1
    13     5    38    1
    14     5    39    1
    15     5    40    1
    16     6     7    2
    17     6     8    2
    18     6     9    1
    19     9    30   ar
    20     9    10   ar
    21    10    11   ar
    22    10    41    1
    23    11    12   ar
    24    11    42    1
    25    12    13    1
    26    12    29   ar
    27    13    14    1
    28    14    15    1
    29    14    43    1
    30    14    44    1
    31    15    16    2
    32    15    17   am
    33    17    18    1
    34    17    45    1
    35    18    19    1
    36    18    20    1
    37    18    21    1
    38    20    46    1
    39    20    47    1
    40    20    48    1
    41    21    22    1
    42    21    49    1
    43    21    50    1
    44    22    23    1
    45    22    51    1
    46    22    52    1
    47    23    28   ar
    48    23    24   ar
    49    24    25   ar
    50    24    53    1
    51    25    26   ar
    52    25    54    1
    53    26    27   ar
    54    26    55    1
    55    27    28   ar
    56    27    56    1
    57    28    57    1
    58    29    30   ar
    59    29    58    1
    60    30    59    1
