@<TRIPOS>MOLECULE
ZINC000409020012
 67 69 0 0 0
SMALL
GASTEIGER

@<TRIPOS>ATOM
      1 C          -0.0173    1.4248    0.0099 C.3     1  UNL1        0.0790
      2 O           0.0021   -0.0041    0.0020 O.3     1  UNL1       -0.4915
      3 C           0.6062   -0.6075   -1.0564 C.ar    1  UNL1        0.1616
      4 C           1.1727    0.1587   -2.0618 C.ar    1  UNL1       -0.0145
      5 C           1.7870   -0.4565   -3.1372 C.ar    1  UNL1       -0.0317
      6 C           1.8372   -1.8356   -3.2121 C.ar    1  UNL1        0.1092
      7 S           2.6209   -2.6134   -4.5852 S.O2    1  UNL1        0.0614
      8 O           2.0582   -3.9145   -4.6843 O.2     1  UNL1       -0.1528
      9 O           2.5936   -1.6718   -5.6491 O.2     1  UNL1       -0.1528
     10 N           4.2145   -2.8222   -4.1864 N.3     1  UNL1       -0.1675
     11 C           4.6477   -4.0530   -3.5202 C.3     1  UNL1        0.0250
     12 C           5.1573   -5.0467   -4.5660 C.3     1  UNL1       -0.0132
     13 C           5.6029   -6.3128   -3.8807 C.ar    1  UNL1       -0.0461
     14 C           6.9100   -6.4423   -3.4498 C.ar    1  UNL1       -0.0585
     15 C           7.3188   -7.6036   -2.8212 C.ar    1  UNL1       -0.0615
     16 C           6.4203   -8.6353   -2.6231 C.ar    1  UNL1       -0.0617
     17 C           5.1129   -8.5054   -3.0531 C.ar    1  UNL1       -0.0615
     18 C           4.7031   -7.3424   -3.6778 C.ar    1  UNL1       -0.0585
     19 C           5.1912   -1.7762   -4.4997 C.3     1  UNL1        0.0968
     20 C           5.3790   -0.8878   -3.2970 C.2     1  UNL1        0.2290
     21 O           4.7582   -1.1068   -2.2784 O.2     1  UNL1       -0.2743
     22 N           6.2369    0.1502   -3.3533 N.am    1  UNL1       -0.3114
     23 C           6.4195    1.0138   -2.1841 C.3     1  UNL1        0.0232
     24 C           7.4600    0.4193   -1.2741 C.3     1  UNL1       -0.0345
     25 C           7.1668    0.6916    0.2137 C.3     1  UNL1       -0.0514
     26 C           6.6759    2.1287    0.4726 C.3     1  UNL1       -0.0530
     27 C           7.4417    3.1510   -0.3228 C.3     1  UNL1       -0.0530
     28 C           6.6734    3.4300   -1.6308 C.3     1  UNL1       -0.0514
     29 C           6.9039    2.4058   -2.6388 C.3     1  UNL1       -0.0345
     30 C           1.2740   -2.6064   -2.2116 C.ar    1  UNL1        0.0101
     31 C           0.6617   -1.9965   -1.1290 C.ar    1  UNL1        0.1633
     32 O           0.1074   -2.7530   -0.1443 O.3     1  UNL1       -0.4914
     33 C           0.1928   -4.1720   -0.2904 C.3     1  UNL1        0.0790
     34 H           1.0053    1.8021    0.0021 H       1  UNL1        0.0660
     35 H          -0.5445    1.7859   -0.8732 H       1  UNL1        0.0660
     36 H          -0.5275    1.7763    0.9067 H       1  UNL1        0.0660
     37 H           1.1343    1.2366   -2.0060 H       1  UNL1        0.0656
     38 H           2.2283    0.1421   -3.9204 H       1  UNL1        0.0638
     39 H           5.4482   -3.8231   -2.8170 H       1  UNL1        0.0447
     40 H           3.8064   -4.4906   -2.9827 H       1  UNL1        0.0447
     41 H           4.3569   -5.2766   -5.2692 H       1  UNL1        0.0326
     42 H           5.9986   -4.6091   -5.1034 H       1  UNL1        0.0326
     43 H           7.6120   -5.6362   -3.6047 H       1  UNL1        0.0620
     44 H           8.3402   -7.7050   -2.4853 H       1  UNL1        0.0618
     45 H           6.7398   -9.5429   -2.1326 H       1  UNL1        0.0618
     46 H           4.4111   -9.3116   -2.8986 H       1  UNL1        0.0618
     47 H           3.6817   -7.2410   -4.0138 H       1  UNL1        0.0620
     48 H           6.1435   -2.2358   -4.7642 H       1  UNL1        0.0539
     49 H           4.8296   -1.1810   -5.3382 H       1  UNL1        0.0539
     50 H           6.7334    0.3253   -4.1680 H       1  UNL1        0.1490
     51 H           5.4744    1.1115   -1.6499 H       1  UNL1        0.0498
     52 H           7.4952   -0.6582   -1.4352 H       1  UNL1        0.0283
     53 H           8.4321    0.8435   -1.5254 H       1  UNL1        0.0283
     54 H           6.4035   -0.0076    0.5552 H       1  UNL1        0.0266
     55 H           8.0776    0.5224    0.7881 H       1  UNL1        0.0266
     56 H           5.6206    2.1940    0.2076 H       1  UNL1        0.0265
     57 H           6.7855    2.3531    1.5337 H       1  UNL1        0.0265
     58 H           7.5303    4.0720    0.2534 H       1  UNL1        0.0265
     59 H           8.4340    2.7649   -0.5562 H       1  UNL1        0.0265
     60 H           5.6068    3.4751   -1.4108 H       1  UNL1        0.0266
     61 H           6.9911    4.3941   -2.0280 H       1  UNL1        0.0266
     62 H           7.9714    2.3555   -2.8532 H       1  UNL1        0.0283
     63 H           6.3752    2.6830   -3.5509 H       1  UNL1        0.0283
     64 H           1.3146   -3.6839   -2.2726 H       1  UNL1        0.0675
     65 H          -0.2869   -4.6545    0.5611 H       1  UNL1        0.0660
     66 H          -0.3098   -4.4735   -1.2094 H       1  UNL1        0.0660
     67 H           1.2403   -4.4703   -0.3345 H       1  UNL1        0.0660
@<TRIPOS>BOND
     1     1     2    1
     2     1    34    1
     3     1    35    1
     4     1    36    1
     5     2     3    1
     6     3    31   ar
     7     3     4   ar
     8     4     5   ar
     9     4    37    1
    10     5     6   ar
    11     5    38    1
    12     6     7    1
    13     6    30   ar
    14     7     8    2
    15     7     9    2
    16     7    10    1
    17    10    11    1
    18    10    19    1
    19    11    12    1
    20    11    39    1
    21    11    40    1
    22    12    13    1
    23    12    41    1
    24    12    42    1
    25    13    18   ar
    26    13    14   ar
    27    14    15   ar
    28    14    43    1
    29    15    16   ar
    30    15    44    1
    31    16    17   ar
    32    16    45    1
    33    17    18   ar
    34    17    46    1
    35    18    47    1
    36    19    20    1
    37    19    48    1
    38    19    49    1
    39    20    21    2
    40    20    22   am
    41    22    23    1
    42    22    50    1
    43    23    29    1
    44    23    24    1
    45    23    51    1
    46    24    25    1
    47    24    52    1
    48    24    53    1
    49    25    26    1
    50    25    54    1
    51    25    55    1
    52    26    27    1
    53    26    56    1
    54    26    57    1
    55    27    28    1
    56    27    58    1
    57    27    59    1
    58    28    29    1
    59    28    60    1
    60    28    61    1
    61    29    62    1
    62    29    63    1
    63    30    31   ar
    64    30    64    1
    65    31    32    1
    66    32    33    1
    67    33    65    1
    68    33    66    1
    69    33    67    1
