@<TRIPOS>MOLECULE
ZINC000095432518
 61 63 0 0 0
SMALL
GASTEIGER

@<TRIPOS>ATOM
      1 C          -0.2590    1.8909    0.3403 C.3     1  UNL1       -0.0507
      2 C           0.1469    0.4246    0.5017 C.3     1  UNL1        0.0177
      3 N           1.0915    0.0600   -0.5571 N.3     1  UNL1       -0.1771
      4 C           2.5216    0.3286   -0.3873 C.3     1  UNL1        0.0177
      5 C           3.1688   -0.8231    0.3844 C.3     1  UNL1       -0.0507
      6 S           0.5426   -0.6558   -1.9459 S.O2    1  UNL1        0.0609
      7 O           1.6444   -1.3670   -2.4932 O.2     1  UNL1       -0.1528
      8 O          -0.6947   -1.2725   -1.6174 O.2     1  UNL1       -0.1528
      9 C           0.1683    0.6351   -3.0852 C.ar    1  UNL1        0.1075
     10 C          -1.0979    1.1894   -3.1074 C.ar    1  UNL1       -0.0318
     11 C          -1.3976    2.2028   -3.9993 C.ar    1  UNL1       -0.0162
     12 C          -0.4281    2.6653   -4.8738 C.ar    1  UNL1        0.1421
     13 O          -0.7212    3.6620   -5.7511 O.3     1  UNL1       -0.4875
     14 C          -2.0100    4.2686   -5.6369 C.3     1  UNL1        0.0947
     15 C          -1.9622    5.6815   -6.2219 C.3     1  UNL1       -0.0281
     16 C          -3.0366    3.4333   -6.4044 C.3     1  UNL1       -0.0281
     17 C           0.8483    2.1070   -4.8520 C.ar    1  UNL1        0.0775
     18 N           1.8332    2.5711   -5.7340 N.am    1  UNL1       -0.2801
     19 C           2.8492    1.7627   -6.0955 C.2     1  UNL1        0.2507
     20 O           2.9308    0.6458   -5.6295 O.2     1  UNL1       -0.2722
     21 C           3.8837    2.2463   -7.0788 C.3     1  UNL1        0.1598
     22 H           4.2347    3.2333   -6.7773 H       1  UNL1        0.0744
     23 O           4.9840    1.3373   -7.0926 O.3     1  UNL1       -0.3624
     24 C           5.9327    1.6174   -8.1281 C.3     1  UNL1        0.0531
     25 C           5.2990    1.2648   -9.4750 C.3     1  UNL1       -0.0038
     26 C           3.9285    1.8852   -9.5712 C.ar    1  UNL1       -0.0391
     27 C           3.3333    1.9971  -10.8174 C.ar    1  UNL1       -0.0581
     28 C           2.0765    2.5564  -10.9410 C.ar    1  UNL1       -0.0615
     29 C           1.4096    3.0058   -9.8168 C.ar    1  UNL1       -0.0614
     30 C           2.0029    2.8962   -8.5747 C.ar    1  UNL1       -0.0554
     31 C           3.2662    2.3338   -8.4502 C.ar    1  UNL1       -0.0068
     32 C           1.1431    1.0949   -3.9508 C.ar    1  UNL1       -0.0105
     33 H           0.6264    2.5228    0.4098 H       1  UNL1        0.0243
     34 H          -0.7308    2.0324   -0.6321 H       1  UNL1        0.0243
     35 H          -0.9618    2.1622    1.1281 H       1  UNL1        0.0243
     36 H           0.6188    0.2832    1.4741 H       1  UNL1        0.0441
     37 H          -0.7385   -0.2073    0.4322 H       1  UNL1        0.0441
     38 H           2.9928    0.4203   -1.3659 H       1  UNL1        0.0441
     39 H           2.6535    1.2574    0.1678 H       1  UNL1        0.0441
     40 H           4.2328   -0.6232    0.5108 H       1  UNL1        0.0243
     41 H           2.6976   -0.9147    1.3631 H       1  UNL1        0.0243
     42 H           3.0369   -1.7518   -0.1707 H       1  UNL1        0.0243
     43 H          -1.8552    0.8298   -2.4265 H       1  UNL1        0.0638
     44 H          -2.3879    2.6335   -4.0143 H       1  UNL1        0.0655
     45 H          -2.2956    4.3198   -4.5862 H       1  UNL1        0.0727
     46 H          -1.6766    5.6303   -7.2725 H       1  UNL1        0.0265
     47 H          -2.9453    6.1443   -6.1348 H       1  UNL1        0.0265
     48 H          -1.2308    6.2766   -5.6751 H       1  UNL1        0.0265
     49 H          -3.0707    2.4267   -5.9877 H       1  UNL1        0.0265
     50 H          -4.0197    3.8960   -6.3173 H       1  UNL1        0.0265
     51 H          -2.7510    3.3821   -7.4551 H       1  UNL1        0.0265
     52 H           1.7839    3.4743   -6.0844 H       1  UNL1        0.1550
     53 H           6.1916    2.6761   -8.1111 H       1  UNL1        0.0563
     54 H           6.8289    1.0158   -7.9763 H       1  UNL1        0.0563
     55 H           5.9263    1.6448  -10.2813 H       1  UNL1        0.0336
     56 H           5.2136    0.1817   -9.5630 H       1  UNL1        0.0336
     57 H           3.8543    1.6458  -11.6957 H       1  UNL1        0.0620
     58 H           1.6160    2.6427  -11.9141 H       1  UNL1        0.0618
     59 H           0.4261    3.4423   -9.9098 H       1  UNL1        0.0618
     60 H           1.4812    3.2478   -7.6968 H       1  UNL1        0.0621
     61 H           2.1316    0.6603   -3.9311 H       1  UNL1        0.0657
@<TRIPOS>BOND
     1     1     2    1
     2     1    33    1
     3     1    34    1
     4     1    35    1
     5     2     3    1
     6     2    36    1
     7     2    37    1
     8     3     4    1
     9     6     3    1
    10     4     5    1
    11     4    38    1
    12     4    39    1
    13     5    40    1
    14     5    41    1
    15     5    42    1
    16     6     7    2
    17     6     8    2
    18     6     9    1
    19     9    32   ar
    20     9    10   ar
    21    10    11   ar
    22    10    43    1
    23    11    12   ar
    24    11    44    1
    25    12    13    1
    26    12    17   ar
    27    13    14    1
    28    14    15    1
    29    14    16    1
    30    14    45    1
    31    15    46    1
    32    15    47    1
    33    15    48    1
    34    16    49    1
    35    16    50    1
    36    16    51    1
    37    17    18    1
    38    17    32   ar
    39    18    19   am
    40    18    52    1
    41    19    20    2
    42    19    21    1
    43    21    22    1
    44    21    31    1
    45    21    23    1
    46    23    24    1
    47    24    25    1
    48    24    53    1
    49    24    54    1
    50    25    26    1
    51    25    55    1
    52    25    56    1
    53    26    31   ar
    54    26    27   ar
    55    27    28   ar
    56    27    57    1
    57    28    29   ar
    58    28    58    1
    59    29    30   ar
    60    29    59    1
    61    30    31   ar
    62    30    60    1
    63    32    61    1
