@<TRIPOS>MOLECULE
ZINC000013064213
 71 75 0 0 0
SMALL
GASTEIGER

@<TRIPOS>ATOM
      1 C          -9.0402   -6.0417    4.2274 C.3     1  UNL1        0.0788
      2 O          -9.2609   -4.7557    3.6448 O.3     1  UNL1       -0.4951
      3 C          -8.3028   -4.2872    2.8026 C.ar    1  UNL1        0.1202
      4 C          -7.1761   -5.0521    2.5377 C.ar    1  UNL1       -0.0181
      5 C          -6.2038   -4.5739    1.6808 C.ar    1  UNL1       -0.0319
      6 C          -6.3526   -3.3339    1.0876 C.ar    1  UNL1        0.1057
      7 S          -5.1103   -2.7265   -0.0044 S.O2    1  UNL1        0.0616
      8 O          -5.1484   -1.3094    0.0930 O.2     1  UNL1       -0.1528
      9 O          -3.9411   -3.4921    0.2525 O.2     1  UNL1       -0.1528
     10 N          -5.5860   -3.1022   -1.5454 N.3     1  UNL1       -0.1635
     11 C          -5.2904   -4.4250   -2.1013 C.3     1  UNL1        0.0971
     12 C          -6.4771   -5.3316   -1.8991 C.2     1  UNL1        0.2291
     13 O          -7.4719   -4.9139   -1.3452 O.2     1  UNL1       -0.2743
     14 N          -6.4329   -6.6066   -2.3338 N.am    1  UNL1       -0.3111
     15 C          -7.5866   -7.4879   -2.1372 C.3     1  UNL1        0.0260
     16 H          -8.5057   -6.9094   -2.2302 H       1  UNL1        0.0501
     17 C          -7.5175   -8.1151   -0.7434 C.3     1  UNL1       -0.0461
     18 C          -7.5703   -8.5930   -3.1952 C.3     1  UNL1       -0.0104
     19 C          -6.2801   -9.4050   -3.0647 C.3     1  UNL1       -0.0428
     20 C          -6.2638  -10.5101   -4.1227 C.3     1  UNL1       -0.0400
     21 C          -6.3329   -9.8828   -5.5165 C.3     1  UNL1       -0.0473
     22 C          -7.6231   -9.0708   -5.6470 C.3     1  UNL1       -0.0400
     23 C          -8.8279   -9.9912   -5.4417 C.3     1  UNL1       -0.0473
     24 C          -8.7589  -10.6185   -4.0479 C.3     1  UNL1       -0.0400
     25 C          -7.4687  -11.4305   -3.9174 C.3     1  UNL1       -0.0473
     26 C          -8.7751   -9.5134   -2.9899 C.3     1  UNL1       -0.0428
     27 C          -7.6394   -7.9657   -4.5890 C.3     1  UNL1       -0.0428
     28 C          -6.3025   -2.1118   -2.3529 C.3     1  UNL1        0.0460
     29 C          -5.3245   -1.3823   -3.2373 C.ar    1  UNL1       -0.0317
     30 C          -4.7921   -0.1736   -2.8293 C.ar    1  UNL1       -0.0573
     31 C          -3.8950    0.4956   -3.6406 C.ar    1  UNL1       -0.0615
     32 C          -3.5299   -0.0441   -4.8598 C.ar    1  UNL1       -0.0617
     33 C          -4.0616   -1.2533   -5.2674 C.ar    1  UNL1       -0.0615
     34 C          -4.9555   -1.9245   -4.4542 C.ar    1  UNL1       -0.0573
     35 C          -7.4748   -2.5698    1.3496 C.ar    1  UNL1       -0.0319
     36 C          -8.4524   -3.0458    2.2017 C.ar    1  UNL1       -0.0181
     37 H          -9.8781   -6.2951    4.8769 H       1  UNL1        0.0660
     38 H          -8.9538   -6.7883    3.4379 H       1  UNL1        0.0660
     39 H          -8.1203   -6.0228    4.8118 H       1  UNL1        0.0660
     40 H          -7.0591   -6.0205    3.0013 H       1  UNL1        0.0655
     41 H          -5.3265   -5.1690    1.4743 H       1  UNL1        0.0638
     42 H          -5.0811   -4.3328   -3.1671 H       1  UNL1        0.0539
     43 H          -4.4214   -4.8458   -1.5955 H       1  UNL1        0.0539
     44 H          -5.6373   -6.9407   -2.7768 H       1  UNL1        0.1490
     45 H          -8.3759   -8.7709   -0.5971 H       1  UNL1        0.0248
     46 H          -6.5984   -8.6936   -0.6505 H       1  UNL1        0.0248
     47 H          -7.5291   -7.3278    0.0103 H       1  UNL1        0.0248
     48 H          -5.4218   -8.7492   -3.2110 H       1  UNL1        0.0274
     49 H          -6.2309   -9.8518   -2.0718 H       1  UNL1        0.0274
     50 H          -5.3447  -11.0885   -4.0298 H       1  UNL1        0.0301
     51 H          -5.4746   -9.2271   -5.6628 H       1  UNL1        0.0271
     52 H          -6.3213  -10.6701   -6.2703 H       1  UNL1        0.0271
     53 H          -7.6723   -8.6239   -6.6400 H       1  UNL1        0.0301
     54 H          -9.7471   -9.4127   -5.5346 H       1  UNL1        0.0271
     55 H          -8.8163  -10.7785   -6.1954 H       1  UNL1        0.0271
     56 H          -9.6172  -11.2742   -3.9016 H       1  UNL1        0.0301
     57 H          -7.4571  -12.2178   -4.6712 H       1  UNL1        0.0271
     58 H          -7.4195  -11.8774   -2.9245 H       1  UNL1        0.0271
     59 H          -8.7259   -9.9603   -1.9969 H       1  UNL1        0.0274
     60 H          -9.6943   -8.9349   -3.0828 H       1  UNL1        0.0274
     61 H          -8.5585   -7.3872   -4.6819 H       1  UNL1        0.0274
     62 H          -6.7810   -7.3100   -4.7353 H       1  UNL1        0.0274
     63 H          -7.0455   -2.6158   -2.9710 H       1  UNL1        0.0493
     64 H          -6.8001   -1.3986   -1.6957 H       1  UNL1        0.0493
     65 H          -5.0774    0.2481   -1.8768 H       1  UNL1        0.0621
     66 H          -3.4796    1.4403   -3.3221 H       1  UNL1        0.0618
     67 H          -2.8296    0.4791   -5.4939 H       1  UNL1        0.0618
     68 H          -3.7766   -1.6748   -6.2200 H       1  UNL1        0.0618
     69 H          -5.3709   -2.8692   -4.7726 H       1  UNL1        0.0621
     70 H          -7.5889   -1.6016    0.8848 H       1  UNL1        0.0638
     71 H          -9.3288   -2.4486    2.4060 H       1  UNL1        0.0655
@<TRIPOS>BOND
     1     1     2    1
     2     1    37    1
     3     1    38    1
     4     1    39    1
     5     2     3    1
     6     3    36   ar
     7     3     4   ar
     8     4     5   ar
     9     4    40    1
    10     5     6   ar
    11     5    41    1
    12     6     7    1
    13     6    35   ar
    14     7     8    2
    15     7     9    2
    16     7    10    1
    17    10    11    1
    18    10    28    1
    19    11    12    1
    20    11    42    1
    21    11    43    1
    22    12    13    2
    23    12    14   am
    24    14    15    1
    25    14    44    1
    26    15    16    1
    27    15    17    1
    28    18    15    1
    29    17    45    1
    30    17    46    1
    31    17    47    1
    32    18    26    1
    33    18    27    1
    34    18    19    1
    35    19    20    1
    36    19    48    1
    37    19    49    1
    38    20    25    1
    39    20    21    1
    40    20    50    1
    41    21    22    1
    42    21    51    1
    43    21    52    1
    44    22    23    1
    45    22    27    1
    46    22    53    1
    47    23    24    1
    48    23    54    1
    49    23    55    1
    50    24    25    1
    51    24    26    1
    52    24    56    1
    53    25    57    1
    54    25    58    1
    55    26    59    1
    56    26    60    1
    57    27    61    1
    58    27    62    1
    59    28    29    1
    60    28    63    1
    61    28    64    1
    62    29    34   ar
    63    29    30   ar
    64    30    31   ar
    65    30    65    1
    66    31    32   ar
    67    31    66    1
    68    32    33   ar
    69    32    67    1
    70    33    34   ar
    71    33    68    1
    72    34    69    1
    73    35    36   ar
    74    35    70    1
    75    36    71    1
