@<TRIPOS>MOLECULE
ZINC000088059571
 36 37 0 0 0
SMALL
GASTEIGER

@<TRIPOS>ATOM
      1 C          -0.0187    1.5258    0.0104 C.3     1  UNL1       -0.0204
      2 C           0.0021   -0.0041    0.0020 C.3     1  UNL1       -0.0108
      3 H          -1.0205   -0.3815    0.0098 H       1  UNL1        0.0861
      4 C           0.7196   -0.4984   -1.2584 C.3     1  UNL1        0.0633
      5 N           0.8426   -1.9623   -1.1812 N.3     1  UNL1       -0.1662
      6 S           0.3716   -2.9242   -2.4442 S.O2    1  UNL1        0.0612
      7 O           0.0913   -4.2030   -1.8918 O.2     1  UNL1       -0.1528
      8 O          -0.5786   -2.1734   -3.1877 O.2     1  UNL1       -0.1528
      9 C           1.7724   -3.1313   -3.4927 C.ar    1  UNL1        0.1055
     10 C           2.0042   -2.2371   -4.5212 C.ar    1  UNL1       -0.0348
     11 C           3.1032   -2.3996   -5.3438 C.ar    1  UNL1       -0.0483
     12 C           3.9707   -3.4560   -5.1376 C.ar    1  UNL1        0.0549
     13 C           5.1685   -3.6334   -6.0347 C.3     1  UNL1        0.4174
     14 F           6.2587   -2.9388   -5.4998 F       1  UNL1       -0.1659
     15 F           5.4830   -4.9933   -6.1293 F       1  UNL1       -0.1659
     16 F           4.8759   -3.1327   -7.3079 F       1  UNL1       -0.1659
     17 C           3.7397   -4.3493   -4.1083 C.ar    1  UNL1       -0.0483
     18 C           2.6428   -4.1846   -3.2833 C.ar    1  UNL1       -0.0348
     19 C           1.3963   -2.5474    0.0497 C.3     1  UNL1        0.0607
     20 C           0.6469   -1.9564    1.2484 C.3     1  UNL1       -0.0186
     21 N           0.7126   -0.4906    1.1914 N.4     1  UNL1        0.2309
     22 H           1.6778   -0.1999    1.1472 H       1  UNL1        0.2017
     23 H           0.2835   -0.1035    2.0185 H       1  UNL1        0.2017
     24 H           1.0039    1.9031    0.0027 H       1  UNL1        0.0284
     25 H          -0.5459    1.8868   -0.8726 H       1  UNL1        0.0284
     26 H          -0.5289    1.8773    0.9072 H       1  UNL1        0.0284
     27 H           0.1403   -0.2255   -2.1405 H       1  UNL1        0.0500
     28 H           1.7115   -0.0499   -1.3149 H       1  UNL1        0.0500
     29 H           1.3264   -1.4118   -4.6822 H       1  UNL1        0.0637
     30 H           3.2839   -1.7015   -6.1477 H       1  UNL1        0.0624
     31 H           4.4176   -5.1744   -3.9470 H       1  UNL1        0.0624
     32 H           2.4623   -4.8826   -2.4792 H       1  UNL1        0.0637
     33 H           1.2645   -3.6293    0.0325 H       1  UNL1        0.0497
     34 H           2.4566   -2.3059    0.1253 H       1  UNL1        0.0497
     35 H          -0.3951   -2.2749    1.2185 H       1  UNL1        0.0827
     36 H           1.1072   -2.3052    2.1728 H       1  UNL1        0.0827
@<TRIPOS>UNITY_ATOM_ATTR
21 1
charge 1
@<TRIPOS>BOND
     1     1     2    1
     2     1    24    1
     3     1    25    1
     4     1    26    1
     5     2     3    1
     6     2    21    1
     7     2     4    1
     8     4     5    1
     9     4    27    1
    10     4    28    1
    11     6     5    1
    12     5    19    1
    13     6     7    2
    14     6     8    2
    15     6     9    1
    16     9    18   ar
    17     9    10   ar
    18    10    11   ar
    19    10    29    1
    20    11    12   ar
    21    11    30    1
    22    12    13    1
    23    12    17   ar
    24    13    14    1
    25    13    15    1
    26    13    16    1
    27    17    18   ar
    28    17    31    1
    29    18    32    1
    30    19    20    1
    31    19    33    1
    32    19    34    1
    33    20    21    1
    34    20    35    1
    35    20    36    1
    36    21    22    1
    37    21    23    1
