@<TRIPOS>MOLECULE
ZINC000024864864
 52 54 0 0 0
SMALL
GASTEIGER

@<TRIPOS>ATOM
      1 C           0.9468   -1.0453    0.5999 C.3     1  UNL1       -0.0409
      2 C          -0.0357   -0.0351    0.0041 C.3     1  UNL1        0.0848
      3 H           0.1244    0.9410    0.4621 H       1  UNL1        0.0556
      4 C          -1.4474   -0.4898    0.2713 C.2     1  UNL1        0.2342
      5 O          -2.0364   -1.1558   -0.5537 O.2     1  UNL1       -0.2738
      6 N          -2.0555   -0.1564    1.4270 N.am    1  UNL1       -0.2842
      7 C          -3.3270   -0.6619    1.7197 C.ar    1  UNL1        0.0334
      8 C          -3.6671   -0.9741    3.0295 C.ar    1  UNL1       -0.0405
      9 C          -4.9229   -1.4729    3.3151 C.ar    1  UNL1       -0.0600
     10 C          -5.8411   -1.6619    2.2985 C.ar    1  UNL1       -0.0616
     11 C          -5.5054   -1.3524    0.9933 C.ar    1  UNL1       -0.0600
     12 C          -4.2535   -0.8470    0.7019 C.ar    1  UNL1       -0.0405
     13 N           0.1812    0.0627   -1.4455 N.3     1  UNL1       -0.2892
     14 C           1.6063    0.2413   -1.7537 C.3     1  UNL1        0.0141
     15 C           1.8121    0.1571   -3.2699 C.3     1  UNL1        0.0333
     16 N           0.9100    1.1212   -3.9180 N.3     1  UNL1       -0.1741
     17 S           1.4835    2.2085   -5.0276 S.O2    1  UNL1        0.0609
     18 O           0.5656    3.2932   -5.0379 O.2     1  UNL1       -0.1528
     19 O           2.8694    2.3657   -4.7561 O.2     1  UNL1       -0.1528
     20 C           1.3703    1.4458   -6.6119 C.ar    1  UNL1        0.1055
     21 C           2.4272    0.6977   -7.0960 C.ar    1  UNL1       -0.0348
     22 C           2.3384    0.0994   -8.3390 C.ar    1  UNL1       -0.0483
     23 C           1.1925    0.2487   -9.0977 C.ar    1  UNL1        0.0549
     24 C           1.0959   -0.4032  -10.4529 C.3     1  UNL1        0.4174
     25 F           0.5564   -1.6866  -10.3157 F       1  UNL1       -0.1659
     26 F           0.2698    0.3638  -11.2815 F       1  UNL1       -0.1659
     27 F           2.3718   -0.4918  -11.0198 F       1  UNL1       -0.1659
     28 C           0.1351    0.9957   -8.6130 C.ar    1  UNL1       -0.0483
     29 C           0.2224    1.5909   -7.3684 C.ar    1  UNL1       -0.0348
     30 C          -0.5150    1.0936   -3.5549 C.3     1  UNL1        0.0333
     31 C          -0.6291    1.1409   -2.0275 C.3     1  UNL1        0.0141
     32 H           0.7867   -2.0214    0.1419 H       1  UNL1        0.0249
     33 H           1.9679   -0.7164    0.4066 H       1  UNL1        0.0249
     34 H           0.7859   -1.1178    1.6755 H       1  UNL1        0.0249
     35 H          -1.6116    0.4339    2.0558 H       1  UNL1        0.1549
     36 H          -2.9501   -0.8274    3.8238 H       1  UNL1        0.0636
     37 H          -5.1880   -1.7159    4.3335 H       1  UNL1        0.0618
     38 H          -6.8223   -2.0524    2.5244 H       1  UNL1        0.0618
     39 H          -6.2244   -1.5018    0.2014 H       1  UNL1        0.0618
     40 H          -3.9919   -0.6055   -0.3177 H       1  UNL1        0.0636
     41 H           1.9365    1.2163   -1.3954 H       1  UNL1        0.0440
     42 H           2.1853   -0.5417   -1.2640 H       1  UNL1        0.0440
     43 H           2.8459    0.4022   -3.5132 H       1  UNL1        0.0456
     44 H           1.5806   -0.8504   -3.6154 H       1  UNL1        0.0456
     45 H           3.3224    0.5810   -6.5032 H       1  UNL1        0.0637
     46 H           3.1643   -0.4845   -8.7175 H       1  UNL1        0.0624
     47 H          -0.7602    1.1121   -9.2056 H       1  UNL1        0.0624
     48 H          -0.6037    2.1744   -6.9898 H       1  UNL1        0.0637
     49 H          -1.0197    1.9578   -3.9868 H       1  UNL1        0.0456
     50 H          -0.9702    0.1761   -3.9279 H       1  UNL1        0.0456
     51 H          -1.6714    1.0103   -1.7365 H       1  UNL1        0.0440
     52 H          -0.2678    2.1034   -1.6654 H       1  UNL1        0.0440
@<TRIPOS>BOND
     1     1     2    1
     2     1    32    1
     3     1    33    1
     4     1    34    1
     5     2     3    1
     6     2     4    1
     7     2    13    1
     8     4     5    2
     9     4     6   am
    10     6     7    1
    11     6    35    1
    12     7    12   ar
    13     7     8   ar
    14     8     9   ar
    15     8    36    1
    16     9    10   ar
    17     9    37    1
    18    10    11   ar
    19    10    38    1
    20    11    12   ar
    21    11    39    1
    22    12    40    1
    23    13    31    1
    24    13    14    1
    25    14    15    1
    26    14    41    1
    27    14    42    1
    28    15    16    1
    29    15    43    1
    30    15    44    1
    31    17    16    1
    32    16    30    1
    33    17    18    2
    34    17    19    2
    35    17    20    1
    36    20    29   ar
    37    20    21   ar
    38    21    22   ar
    39    21    45    1
    40    22    23   ar
    41    22    46    1
    42    23    24    1
    43    23    28   ar
    44    24    25    1
    45    24    26    1
    46    24    27    1
    47    28    29   ar
    48    28    47    1
    49    29    48    1
    50    30    31    1
    51    30    49    1
    52    30    50    1
    53    31    51    1
    54    31    52    1
