@<TRIPOS>MOLECULE
ZINC000028207362
 53 54 0 0 0
SMALL
GASTEIGER

@<TRIPOS>ATOM
      1 C          -0.0187    1.5258    0.0104 C.3     1  UNL1       -0.0466
      2 C           0.0021   -0.0041    0.0020 C.3     1  UNL1        0.0207
      3 H           0.5123   -0.3556   -0.8948 H       1  UNL1        0.0495
      4 C          -1.4333   -0.5336    0.0129 C.3     1  UNL1       -0.0308
      5 C          -1.4157   -2.0577   -0.1212 C.3     1  UNL1       -0.0260
      6 C          -2.8295   -2.5793   -0.1105 C.ar    1  UNL1       -0.0473
      7 C          -3.4324   -2.9175    1.0866 C.ar    1  UNL1       -0.0586
      8 C          -4.7292   -3.3959    1.0964 C.ar    1  UNL1       -0.0615
      9 C          -5.4233   -3.5358   -0.0908 C.ar    1  UNL1       -0.0617
     10 C          -4.8208   -3.1967   -1.2878 C.ar    1  UNL1       -0.0615
     11 C          -3.5254   -2.7142   -1.2973 C.ar    1  UNL1       -0.0586
     12 N           0.7106   -0.4894    1.1889 N.am    1  UNL1       -0.3099
     13 C           2.0538   -0.5998    1.1737 C.2     1  UNL1        0.2509
     14 O           2.6758   -0.2974    0.1774 O.2     1  UNL1       -0.2721
     15 C           2.7826   -1.0990    2.3946 C.3     1  UNL1        0.1651
     16 O           4.1872   -1.1266    2.1327 O.3     1  UNL1       -0.4828
     17 C           4.9940   -1.5557    3.1386 C.ar    1  UNL1        0.1213
     18 C           4.4447   -1.9477    4.3508 C.ar    1  UNL1       -0.0181
     19 C           5.2669   -2.3840    5.3715 C.ar    1  UNL1       -0.0319
     20 C           6.6363   -2.4297    5.1861 C.ar    1  UNL1        0.1057
     21 S           7.6823   -2.9860    6.4903 S.O2    1  UNL1        0.0604
     22 O           8.9636   -2.4225    6.2452 O.2     1  UNL1       -0.1529
     23 O           6.9615   -2.7818    7.6977 O.2     1  UNL1       -0.1529
     24 N           7.8514   -4.6244    6.3181 N.3     1  UNL1       -0.1827
     25 C           8.9424   -5.1667    5.5046 C.3     1  UNL1        0.0086
     26 C           6.9099   -5.5314    6.9792 C.3     1  UNL1        0.0086
     27 C           7.1862   -2.0400    3.9789 C.ar    1  UNL1       -0.0319
     28 C           6.3679   -1.6079    2.9532 C.ar    1  UNL1       -0.0181
     29 H           1.0039    1.9031    0.0027 H       1  UNL1        0.0247
     30 H          -0.5459    1.8868   -0.8726 H       1  UNL1        0.0247
     31 H          -0.5289    1.8773    0.9072 H       1  UNL1        0.0247
     32 H          -1.9156   -0.2570    0.9504 H       1  UNL1        0.0286
     33 H          -1.9862   -0.1019   -0.8214 H       1  UNL1        0.0286
     34 H          -0.9334   -2.3344   -1.0587 H       1  UNL1        0.0314
     35 H          -0.8628   -2.4894    0.7131 H       1  UNL1        0.0314
     36 H          -2.8901   -2.8082    2.0141 H       1  UNL1        0.0620
     37 H          -5.2000   -3.6608    2.0316 H       1  UNL1        0.0618
     38 H          -6.4363   -3.9103   -0.0832 H       1  UNL1        0.0618
     39 H          -5.3630   -3.3063   -2.2154 H       1  UNL1        0.0618
     40 H          -3.0546   -2.4493   -2.2324 H       1  UNL1        0.0620
     41 H           0.2131   -0.7312    1.9857 H       1  UNL1        0.1491
     42 H           2.5826   -0.4337    3.2345 H       1  UNL1        0.0795
     43 H           2.4385   -2.1044    2.6374 H       1  UNL1        0.0795
     44 H           3.3751   -1.9115    4.4963 H       1  UNL1        0.0655
     45 H           4.8397   -2.6892    6.3153 H       1  UNL1        0.0638
     46 H           9.8192   -5.3258    6.1323 H       1  UNL1        0.0408
     47 H           8.6321   -6.1153    5.0665 H       1  UNL1        0.0408
     48 H           9.1876   -4.4624    4.7096 H       1  UNL1        0.0408
     49 H           6.0702   -5.7317    6.3137 H       1  UNL1        0.0408
     50 H           7.4146   -6.4673    7.2191 H       1  UNL1        0.0408
     51 H           6.5444   -5.0701    7.8967 H       1  UNL1        0.0408
     52 H           8.2561   -2.0769    3.8363 H       1  UNL1        0.0638
     53 H           6.7979   -1.3036    2.0103 H       1  UNL1        0.0655
@<TRIPOS>BOND
     1     1     2    1
     2     1    29    1
     3     1    30    1
     4     1    31    1
     5     2     3    1
     6     2     4    1
     7     2    12    1
     8     4     5    1
     9     4    32    1
    10     4    33    1
    11     5     6    1
    12     5    34    1
    13     5    35    1
    14     6    11   ar
    15     6     7   ar
    16     7     8   ar
    17     7    36    1
    18     8     9   ar
    19     8    37    1
    20     9    10   ar
    21     9    38    1
    22    10    11   ar
    23    10    39    1
    24    11    40    1
    25    12    13   am
    26    12    41    1
    27    13    14    2
    28    13    15    1
    29    15    16    1
    30    15    42    1
    31    15    43    1
    32    16    17    1
    33    17    28   ar
    34    17    18   ar
    35    18    19   ar
    36    18    44    1
    37    19    20   ar
    38    19    45    1
    39    20    21    1
    40    20    27   ar
    41    21    22    2
    42    21    23    2
    43    21    24    1
    44    24    25    1
    45    24    26    1
    46    25    46    1
    47    25    47    1
    48    25    48    1
    49    26    49    1
    50    26    50    1
    51    26    51    1
    52    27    28   ar
    53    27    52    1
    54    28    53    1
