@<TRIPOS>MOLECULE
ZINC000408613871
 62 64 0 0 0
SMALL
GASTEIGER

@<TRIPOS>ATOM
      1 C          -3.5573   -9.2274   -0.1152 C.3     1  UNL1       -0.0397
      2 C          -2.6433   -8.0296   -0.0861 C.ar    1  UNL1       -0.0503
      3 C          -2.3111   -7.4427    1.1206 C.ar    1  UNL1       -0.0570
      4 C          -1.4727   -6.3440    1.1472 C.ar    1  UNL1       -0.0351
      5 C          -0.9661   -5.8324   -0.0328 C.ar    1  UNL1        0.1055
      6 S           0.1021   -4.4316    0.0011 S.O2    1  UNL1        0.0616
      7 O          -0.0100   -3.8105   -1.2721 O.2     1  UNL1       -0.1528
      8 O          -0.1626   -3.7546    1.2221 O.2     1  UNL1       -0.1528
      9 N           1.6535   -5.0006    0.1087 N.3     1  UNL1       -0.1635
     10 C           2.2155   -5.3532    1.4149 C.3     1  UNL1        0.0971
     11 C           2.0395   -6.8305    1.6553 C.2     1  UNL1        0.2290
     12 O           1.4980   -7.5208    0.8179 O.2     1  UNL1       -0.2743
     13 N           2.4839   -7.3845    2.8007 N.am    1  UNL1       -0.3116
     14 C           2.3128   -8.8206    3.0344 C.3     1  UNL1        0.0206
     15 H           1.3707   -9.1503    2.5964 H       1  UNL1        0.0495
     16 C           3.4705   -9.5839    2.3880 C.3     1  UNL1       -0.0466
     17 C           2.2988   -9.0943    4.5397 C.3     1  UNL1       -0.0308
     18 C           1.0699   -8.4329    5.1668 C.3     1  UNL1       -0.0260
     19 C           1.0561   -8.7025    6.6495 C.ar    1  UNL1       -0.0473
     20 C           0.4215   -9.8277    7.1415 C.ar    1  UNL1       -0.0586
     21 C           0.4088  -10.0750    8.5015 C.ar    1  UNL1       -0.0615
     22 C           1.0311   -9.1973    9.3694 C.ar    1  UNL1       -0.0617
     23 C           1.6665   -8.0725    8.8773 C.ar    1  UNL1       -0.0615
     24 C           1.6828   -7.8275    7.5169 C.ar    1  UNL1       -0.0586
     25 C           2.4641   -5.1515   -1.1023 C.3     1  UNL1        0.0460
     26 C           3.3251   -3.9284   -1.2860 C.ar    1  UNL1       -0.0317
     27 C           2.8966   -2.8976   -2.1012 C.ar    1  UNL1       -0.0573
     28 C           3.6864   -1.7757   -2.2698 C.ar    1  UNL1       -0.0615
     29 C           4.9045   -1.6844   -1.6228 C.ar    1  UNL1       -0.0617
     30 C           5.3327   -2.7149   -0.8069 C.ar    1  UNL1       -0.0615
     31 C           4.5410   -3.8349   -0.6349 C.ar    1  UNL1       -0.0573
     32 C          -1.2972   -6.4201   -1.2394 C.ar    1  UNL1       -0.0351
     33 C          -2.1325   -7.5212   -1.2658 C.ar    1  UNL1       -0.0570
     34 H          -2.9644  -10.1388   -0.0384 H       1  UNL1        0.0278
     35 H          -4.2524   -9.1744    0.7228 H       1  UNL1        0.0278
     36 H          -4.1163   -9.2353   -1.0509 H       1  UNL1        0.0278
     37 H          -2.7069   -7.8424    2.0425 H       1  UNL1        0.0621
     38 H          -1.2138   -5.8851    2.0899 H       1  UNL1        0.0637
     39 H           3.2770   -5.1062    1.4324 H       1  UNL1        0.0539
     40 H           1.6994   -4.7941    2.1954 H       1  UNL1        0.0539
     41 H           2.9169   -6.8324    3.4704 H       1  UNL1        0.1490
     42 H           3.3432  -10.6524    2.5618 H       1  UNL1        0.0247
     43 H           3.4805   -9.3890    1.3156 H       1  UNL1        0.0247
     44 H           4.4126   -9.2543    2.8260 H       1  UNL1        0.0247
     45 H           2.2608  -10.1697    4.7131 H       1  UNL1        0.0286
     46 H           3.2022   -8.6850    4.9918 H       1  UNL1        0.0286
     47 H           1.1078   -7.3575    4.9934 H       1  UNL1        0.0314
     48 H           0.1665   -8.8422    4.7147 H       1  UNL1        0.0314
     49 H          -0.0647  -10.5134    6.4634 H       1  UNL1        0.0620
     50 H          -0.0876  -10.9537    8.8860 H       1  UNL1        0.0618
     51 H           1.0206   -9.3901   10.4320 H       1  UNL1        0.0618
     52 H           2.1524   -7.3866    9.5554 H       1  UNL1        0.0618
     53 H           2.1792   -6.9488    7.1324 H       1  UNL1        0.0620
     54 H           3.0994   -6.0321   -1.0069 H       1  UNL1        0.0493
     55 H           1.8091   -5.2678   -1.9657 H       1  UNL1        0.0493
     56 H           1.9448   -2.9689   -2.6067 H       1  UNL1        0.0621
     57 H           3.3518   -0.9706   -2.9072 H       1  UNL1        0.0618
     58 H           5.5219   -0.8082   -1.7550 H       1  UNL1        0.0618
     59 H           6.2846   -2.6437   -0.3016 H       1  UNL1        0.0618
     60 H           4.8755   -4.6400    0.0025 H       1  UNL1        0.0621
     61 H          -0.9011   -6.0206   -2.1613 H       1  UNL1        0.0637
     62 H          -2.3912   -7.9803   -2.2085 H       1  UNL1        0.0621
@<TRIPOS>BOND
     1     1     2    1
     2     1    34    1
     3     1    35    1
     4     1    36    1
     5     2    33   ar
     6     2     3   ar
     7     3     4   ar
     8     3    37    1
     9     4     5   ar
    10     4    38    1
    11     5     6    1
    12     5    32   ar
    13     6     7    2
    14     6     8    2
    15     6     9    1
    16     9    10    1
    17     9    25    1
    18    10    11    1
    19    10    39    1
    20    10    40    1
    21    11    12    2
    22    11    13   am
    23    13    14    1
    24    13    41    1
    25    14    15    1
    26    14    16    1
    27    14    17    1
    28    16    42    1
    29    16    43    1
    30    16    44    1
    31    17    18    1
    32    17    45    1
    33    17    46    1
    34    18    19    1
    35    18    47    1
    36    18    48    1
    37    19    24   ar
    38    19    20   ar
    39    20    21   ar
    40    20    49    1
    41    21    22   ar
    42    21    50    1
    43    22    23   ar
    44    22    51    1
    45    23    24   ar
    46    23    52    1
    47    24    53    1
    48    25    26    1
    49    25    54    1
    50    25    55    1
    51    26    31   ar
    52    26    27   ar
    53    27    28   ar
    54    27    56    1
    55    28    29   ar
    56    28    57    1
    57    29    30   ar
    58    29    58    1
    59    30    31   ar
    60    30    59    1
    61    31    60    1
    62    32    33   ar
    63    32    61    1
    64    33    62    1
