@<TRIPOS>MOLECULE
ZINC000000792898
 62 64 0 0 0
SMALL
GASTEIGER

@<TRIPOS>ATOM
      1 C          -0.0173    1.4248    0.0099 C.3     1  UNL1        0.0790
      2 O           0.0021   -0.0041    0.0020 O.3     1  UNL1       -0.4915
      3 C           0.6262   -0.6188    1.0422 C.ar    1  UNL1        0.1616
      4 C           1.2019    0.1365    2.0506 C.ar    1  UNL1       -0.0145
      5 C           1.8358   -0.4901    3.1079 C.ar    1  UNL1       -0.0317
      6 C           1.8971   -1.8698    3.1612 C.ar    1  UNL1        0.1092
      7 S           2.7068   -2.6623    4.5107 S.O2    1  UNL1        0.0614
      8 O           3.0940   -3.9485    4.0470 O.2     1  UNL1       -0.1528
      9 O           3.6271   -1.7166    5.0378 O.2     1  UNL1       -0.1528
     10 N           1.5682   -2.9124    5.6869 N.3     1  UNL1       -0.1675
     11 C           0.7940   -4.1560    5.7043 C.3     1  UNL1        0.0250
     12 C           1.4605   -5.1586    6.6485 C.3     1  UNL1       -0.0132
     13 C           0.6640   -6.4378    6.6664 C.ar    1  UNL1       -0.0461
     14 C          -0.3603   -6.6015    7.5801 C.ar    1  UNL1       -0.0585
     15 C          -1.0908   -7.7749    7.5965 C.ar    1  UNL1       -0.0615
     16 C          -0.7974   -8.7844    6.6989 C.ar    1  UNL1       -0.0617
     17 C           0.2263   -8.6203    5.7846 C.ar    1  UNL1       -0.0615
     18 C           0.9541   -7.4452    5.7653 C.ar    1  UNL1       -0.0585
     19 C           1.3352   -1.8902    6.7101 C.3     1  UNL1        0.0968
     20 C           0.1860   -1.0109    6.2892 C.2     1  UNL1        0.2289
     21 O          -0.3825   -1.2179    5.2380 O.2     1  UNL1       -0.2743
     22 N          -0.2101    0.0053    7.0809 N.am    1  UNL1       -0.3117
     23 C          -1.3274    0.8600    6.6717 C.3     1  UNL1        0.0379
     24 C          -1.5707    1.9277    7.7403 C.3     1  UNL1        0.0742
     25 H          -0.6762    2.5351    7.8779 H       1  UNL1        0.0611
     26 C          -2.7722    2.8219    7.3432 C.3     1  UNL1       -0.0231
     27 C          -3.2325    3.3326    8.7358 C.3     1  UNL1       -0.0271
     28 C          -2.9338    2.1206    9.6443 C.3     1  UNL1        0.0482
     29 O          -1.9519    1.3131    8.9814 O.3     1  UNL1       -0.3750
     30 C           1.3241   -2.6298    2.1580 C.ar    1  UNL1        0.0101
     31 C           0.6830   -2.0084    1.0988 C.ar    1  UNL1        0.1633
     32 O           0.1189   -2.7543    0.1114 O.3     1  UNL1       -0.4914
     33 C           0.2250   -4.1744    0.2301 C.3     1  UNL1        0.0790
     34 H           1.0053    1.8021    0.0021 H       1  UNL1        0.0660
     35 H          -0.5445    1.7859   -0.8732 H       1  UNL1        0.0660
     36 H          -0.5275    1.7763    0.9067 H       1  UNL1        0.0660
     37 H           1.1560    1.2148    2.0110 H       1  UNL1        0.0656
     38 H           2.2843    0.0999    3.8935 H       1  UNL1        0.0638
     39 H          -0.2186   -3.9488    6.0504 H       1  UNL1        0.0447
     40 H           0.7557   -4.5743    4.6985 H       1  UNL1        0.0447
     41 H           2.4731   -5.3658    6.3024 H       1  UNL1        0.0326
     42 H           1.4987   -4.7403    7.6543 H       1  UNL1        0.0326
     43 H          -0.5895   -5.8129    8.2814 H       1  UNL1        0.0620
     44 H          -1.8906   -7.9032    8.3109 H       1  UNL1        0.0618
     45 H          -1.3677   -9.7015    6.7122 H       1  UNL1        0.0618
     46 H           0.4558   -9.4091    5.0835 H       1  UNL1        0.0618
     47 H           1.7539   -7.3170    5.0510 H       1  UNL1        0.0620
     48 H           1.0956   -2.3725    7.6577 H       1  UNL1        0.0539
     49 H           2.2328   -1.2831    6.8282 H       1  UNL1        0.0539
     50 H           0.2445    0.1708    7.9216 H       1  UNL1        0.1488
     51 H          -1.0878    1.3424    5.7241 H       1  UNL1        0.0487
     52 H          -2.2250    0.2530    6.5536 H       1  UNL1        0.0487
     53 H          -2.4538    3.6481    6.7075 H       1  UNL1        0.0291
     54 H          -3.5551    2.2366    6.8610 H       1  UNL1        0.0291
     55 H          -2.6493    4.2007    9.0429 H       1  UNL1        0.0288
     56 H          -4.2982    3.5614    8.7323 H       1  UNL1        0.0288
     57 H          -2.5427    2.4639   10.6021 H       1  UNL1        0.0560
     58 H          -3.8445    1.5427    9.8012 H       1  UNL1        0.0560
     59 H           1.3734   -3.7078    2.2020 H       1  UNL1        0.0675
     60 H          -0.2653   -4.6477   -0.6207 H       1  UNL1        0.0660
     61 H           1.2767   -4.4600    0.2483 H       1  UNL1        0.0660
     62 H          -0.2556   -4.4988    1.1530 H       1  UNL1        0.0660
@<TRIPOS>BOND
     1     1     2    1
     2     1    34    1
     3     1    35    1
     4     1    36    1
     5     2     3    1
     6     3    31   ar
     7     3     4   ar
     8     4     5   ar
     9     4    37    1
    10     5     6   ar
    11     5    38    1
    12     6     7    1
    13     6    30   ar
    14     7     8    2
    15     7     9    2
    16     7    10    1
    17    10    11    1
    18    10    19    1
    19    11    12    1
    20    11    39    1
    21    11    40    1
    22    12    13    1
    23    12    41    1
    24    12    42    1
    25    13    18   ar
    26    13    14   ar
    27    14    15   ar
    28    14    43    1
    29    15    16   ar
    30    15    44    1
    31    16    17   ar
    32    16    45    1
    33    17    18   ar
    34    17    46    1
    35    18    47    1
    36    19    20    1
    37    19    48    1
    38    19    49    1
    39    20    21    2
    40    20    22   am
    41    22    23    1
    42    22    50    1
    43    23    24    1
    44    23    51    1
    45    23    52    1
    46    24    25    1
    47    24    29    1
    48    24    26    1
    49    26    27    1
    50    26    53    1
    51    26    54    1
    52    27    28    1
    53    27    55    1
    54    27    56    1
    55    28    29    1
    56    28    57    1
    57    28    58    1
    58    30    31   ar
    59    30    59    1
    60    31    32    1
    61    32    33    1
    62    33    60    1
    63    33    61    1
    64    33    62    1
