@<TRIPOS>MOLECULE
ZINC000016084487
 54 56 0 0 0
SMALL
GASTEIGER

@<TRIPOS>ATOM
      1 C           1.4803   -3.4426    2.3165 C.3     1  UNL1        0.0817
      2 O           0.7576   -2.6058    1.3753 O.3     1  UNL1       -0.4679
      3 C          -0.4206   -3.0684    0.9286 C.2     1  UNL1        0.3087
      4 O          -0.8734   -4.0968    1.3726 O.2     1  UNL1       -0.2508
      5 C          -1.1786   -2.3051   -0.1268 C.3     1  UNL1        0.0662
      6 C          -2.6469   -2.7348   -0.1114 C.3     1  UNL1        0.0672
      7 H          -3.1685   -2.2741   -0.9503 H       1  UNL1        0.0535
      8 C          -2.7317   -4.2361   -0.2310 C.ar    1  UNL1       -0.0212
      9 C          -2.4169   -4.8048   -1.4579 C.ar    1  UNL1       -0.0113
     10 C          -2.4652   -6.1761   -1.6299 C.ar    1  UNL1        0.1618
     11 O          -2.1564   -6.7261   -2.8347 O.3     1  UNL1       -0.4914
     12 C          -1.7893   -5.8273   -3.8832 C.3     1  UNL1        0.0790
     13 C          -2.8314   -6.9896   -0.5618 C.ar    1  UNL1        0.1618
     14 O          -2.8774   -8.3401   -0.7157 O.3     1  UNL1       -0.4914
     15 C          -3.2618   -9.1103    0.4249 C.3     1  UNL1        0.0790
     16 C          -3.1477   -6.4181    0.6566 C.ar    1  UNL1       -0.0128
     17 C          -3.1041   -5.0391    0.8243 C.ar    1  UNL1       -0.0377
     18 C          -3.4888   -4.4895    2.1729 C.3     1  UNL1       -0.0128
     19 C          -2.9465   -3.0732    2.3579 C.3     1  UNL1        0.0252
     20 N          -3.2682   -2.3042    1.1455 N.3     1  UNL1       -0.1684
     21 S          -4.2911   -1.0029    1.1972 S.O2    1  UNL1        0.0614
     22 O          -4.8979   -0.9183   -0.0849 O.2     1  UNL1       -0.1528
     23 O          -5.0343   -1.1243    2.4023 O.2     1  UNL1       -0.1528
     24 C          -3.2929    0.4386    1.3713 C.ar    1  UNL1        0.1055
     25 C          -2.8695    0.8389    2.6249 C.ar    1  UNL1       -0.0348
     26 C          -2.0864    1.9697    2.7615 C.ar    1  UNL1       -0.0483
     27 C          -1.7262    2.7001    1.6445 C.ar    1  UNL1        0.0549
     28 C          -0.8729    3.9333    1.7935 C.3     1  UNL1        0.4174
     29 F           0.4778    3.5788    1.7086 F       1  UNL1       -0.1659
     30 F          -1.1819    4.8402    0.7741 F       1  UNL1       -0.1659
     31 F          -1.1223    4.5257    3.0361 F       1  UNL1       -0.1659
     32 C          -2.1485    2.2991    0.3908 C.ar    1  UNL1       -0.0483
     33 C          -2.9284    1.1661    0.2538 C.ar    1  UNL1       -0.0348
     34 H           2.4504   -2.9942    2.5309 H       1  UNL1        0.0661
     35 H           0.9078   -3.5289    3.2400 H       1  UNL1        0.0661
     36 H           1.6253   -4.4331    1.8850 H       1  UNL1        0.0661
     37 H          -1.1105   -1.2367    0.0782 H       1  UNL1        0.0397
     38 H          -0.7488   -2.5152   -1.1062 H       1  UNL1        0.0397
     39 H          -2.1324   -4.1710   -2.2848 H       1  UNL1        0.0659
     40 H          -1.5686   -6.3946   -4.7874 H       1  UNL1        0.0660
     41 H          -2.6127   -5.1399   -4.0774 H       1  UNL1        0.0660
     42 H          -0.9066   -5.2618   -3.5846 H       1  UNL1        0.0660
     43 H          -2.5579   -8.9320    1.2377 H       1  UNL1        0.0660
     44 H          -4.2631   -8.8172    0.7405 H       1  UNL1        0.0660
     45 H          -3.2577  -10.1692    0.1664 H       1  UNL1        0.0660
     46 H          -3.4318   -7.0491    1.4858 H       1  UNL1        0.0658
     47 H          -4.5755   -4.4709    2.2557 H       1  UNL1        0.0326
     48 H          -3.0816   -5.1338    2.9520 H       1  UNL1        0.0326
     49 H          -3.4162   -2.6088    3.2250 H       1  UNL1        0.0447
     50 H          -1.8660   -3.1072    2.4971 H       1  UNL1        0.0447
     51 H          -3.1509    0.2682    3.4976 H       1  UNL1        0.0637
     52 H          -1.7562    2.2828    3.7410 H       1  UNL1        0.0624
     53 H          -1.8668    2.8696   -0.4819 H       1  UNL1        0.0624
     54 H          -3.2583    0.8528   -0.7257 H       1  UNL1        0.0637
@<TRIPOS>BOND
     1     1     2    1
     2     1    34    1
     3     1    35    1
     4     1    36    1
     5     2     3    1
     6     3     4    2
     7     3     5    1
     8     5     6    1
     9     5    37    1
    10     5    38    1
    11     6     7    1
    12     6    20    1
    13     6     8    1
    14     8    17   ar
    15     8     9   ar
    16     9    10   ar
    17     9    39    1
    18    10    11    1
    19    10    13   ar
    20    11    12    1
    21    12    40    1
    22    12    41    1
    23    12    42    1
    24    13    14    1
    25    13    16   ar
    26    14    15    1
    27    15    43    1
    28    15    44    1
    29    15    45    1
    30    16    17   ar
    31    16    46    1
    32    17    18    1
    33    18    19    1
    34    18    47    1
    35    18    48    1
    36    19    20    1
    37    19    49    1
    38    19    50    1
    39    21    20    1
    40    21    22    2
    41    21    23    2
    42    21    24    1
    43    24    33   ar
    44    24    25   ar
    45    25    26   ar
    46    25    51    1
    47    26    27   ar
    48    26    52    1
    49    27    28    1
    50    27    32   ar
    51    28    29    1
    52    28    30    1
    53    28    31    1
    54    32    33   ar
    55    32    53    1
    56    33    54    1
