@<TRIPOS>MOLECULE
ZINC000013004650
 44 46 0 0 0
SMALL
GASTEIGER

@<TRIPOS>ATOM
      1 O           0.0648    0.0269    0.2700 O.2     1  UNL1       -0.2700
      2 C          -0.0144    1.2113    0.0087 C.2     1  UNL1        0.2467
      3 C           1.1922    2.0636    0.0674 C.ar    1  UNL1        0.0369
      4 C           1.1220    3.3403    0.6272 C.ar    1  UNL1       -0.0491
      5 C           2.2516    4.1306    0.6789 C.ar    1  UNL1       -0.0494
      6 C           3.4521    3.6603    0.1770 C.ar    1  UNL1        0.0549
      7 C           4.6820    4.5291    0.2368 C.3     1  UNL1        0.4174
      8 F           5.3601    4.2953    1.4379 F       1  UNL1       -0.1659
      9 F           5.5216    4.2236   -0.8398 F       1  UNL1       -0.1659
     10 F           4.3061    5.8749    0.1678 F       1  UNL1       -0.1659
     11 C           3.5286    2.3957   -0.3792 C.ar    1  UNL1       -0.0494
     12 C           2.4078    1.5929   -0.4314 C.ar    1  UNL1       -0.0491
     13 N          -1.2012    1.7465   -0.3400 N.am    1  UNL1       -0.2950
     14 C          -1.2890    3.1435   -0.7879 C.3     1  UNL1        0.0294
     15 C          -1.9631    3.1752   -2.1651 C.3     1  UNL1        0.0364
     16 N          -3.1925    2.3721   -2.1048 N.3     1  UNL1       -0.1736
     17 S          -4.6505    3.0294   -2.5343 S.O2    1  UNL1        0.0610
     18 O          -5.6470    2.2621   -1.8729 O.2     1  UNL1       -0.1528
     19 O          -4.5192    4.4353   -2.3754 O.2     1  UNL1       -0.1528
     20 C          -4.8645    2.7415   -4.2594 C.ar    1  UNL1        0.1069
     21 C          -4.4031    3.6670   -5.1766 C.ar    1  UNL1       -0.0339
     22 C          -4.5703    3.4424   -6.5304 C.ar    1  UNL1       -0.0401
     23 C          -5.1996    2.2911   -6.9678 C.ar    1  UNL1        0.0594
     24 CL         -5.4093    2.0082   -8.6677 Cl      1  UNL1       -0.0820
     25 C          -5.6618    1.3638   -6.0489 C.ar    1  UNL1        0.0611
     26 CL         -6.4519   -0.0819   -6.5962 Cl      1  UNL1       -0.0820
     27 C          -5.4886    1.5875   -4.6951 C.ar    1  UNL1       -0.0156
     28 C          -3.1046    0.9751   -1.6569 C.3     1  UNL1        0.0364
     29 C          -2.4297    0.9418   -0.2850 C.3     1  UNL1        0.0294
     30 H           0.1853    3.7088    1.0187 H       1  UNL1        0.0625
     31 H           2.1986    5.1186    1.1117 H       1  UNL1        0.0623
     32 H           4.4686    2.0347   -0.7695 H       1  UNL1        0.0623
     33 H           2.4688    0.6060   -0.8658 H       1  UNL1        0.0625
     34 H          -1.8820    3.7190   -0.0770 H       1  UNL1        0.0478
     35 H          -0.2877    3.5679   -0.8609 H       1  UNL1        0.0478
     36 H          -2.2106    4.2037   -2.4278 H       1  UNL1        0.0459
     37 H          -1.2889    2.7563   -2.9122 H       1  UNL1        0.0459
     38 H          -3.9120    4.5663   -4.8353 H       1  UNL1        0.0637
     39 H          -4.2099    4.1661   -7.2464 H       1  UNL1        0.0633
     40 H          -5.8486    0.8646   -3.9779 H       1  UNL1        0.0652
     41 H          -4.1060    0.5507   -1.5839 H       1  UNL1        0.0459
     42 H          -2.5117    0.3996   -2.3678 H       1  UNL1        0.0459
     43 H          -2.1828   -0.0872   -0.0237 H       1  UNL1        0.0478
     44 H          -3.1020    1.3608    0.4637 H       1  UNL1        0.0478
@<TRIPOS>BOND
     1     1     2    2
     2     2     3    1
     3     2    13   am
     4     3    12   ar
     5     3     4   ar
     6     4     5   ar
     7     4    30    1
     8     5     6   ar
     9     5    31    1
    10     6     7    1
    11     6    11   ar
    12     7     8    1
    13     7     9    1
    14     7    10    1
    15    11    12   ar
    16    11    32    1
    17    12    33    1
    18    13    29    1
    19    13    14    1
    20    14    15    1
    21    14    34    1
    22    14    35    1
    23    15    16    1
    24    15    36    1
    25    15    37    1
    26    17    16    1
    27    16    28    1
    28    17    18    2
    29    17    19    2
    30    17    20    1
    31    20    27   ar
    32    20    21   ar
    33    21    22   ar
    34    21    38    1
    35    22    23   ar
    36    22    39    1
    37    23    24    1
    38    23    25   ar
    39    25    26    1
    40    25    27   ar
    41    27    40    1
    42    28    29    1
    43    28    41    1
    44    28    42    1
    45    29    43    1
    46    29    44    1
