@<TRIPOS>MOLECULE
ZINC000000074478
 36 37 0 0 0
SMALL
GASTEIGER

@<TRIPOS>ATOM
      1 C          -0.0187    1.5258    0.0104 C.3     1  UNL1       -0.0623
      2 C           0.0021   -0.0041    0.0020 C.3     1  UNL1       -0.0415
      3 C           0.7170   -0.4974   -1.2580 C.3     1  UNL1       -0.0359
      4 C           0.7054   -2.0291   -1.2803 C.3     1  UNL1        0.0207
      5 N           1.2851   -2.5247   -0.0245 N.3     1  UNL1       -0.1766
      6 S           2.5396   -3.6056   -0.0430 S.O2    1  UNL1        0.0609
      7 O           2.5007   -4.2868    1.2034 O.2     1  UNL1       -0.1528
      8 O           2.4756   -4.2730   -1.2959 O.2     1  UNL1       -0.1528
      9 C           4.0333   -2.6710   -0.0528 C.ar    1  UNL1        0.1060
     10 C           4.6041   -2.2930   -1.2535 C.ar    1  UNL1       -0.0353
     11 C           5.7761   -1.5597   -1.2612 C.ar    1  UNL1       -0.0594
     12 C           6.3767   -1.2042   -0.0682 C.ar    1  UNL1       -0.0500
     13 C           5.8052   -1.5815    1.1328 C.ar    1  UNL1        0.0567
     14 C           6.4604   -1.1943    2.4336 C.3     1  UNL1        0.4175
     15 F           7.6237   -0.4631    2.1703 F       1  UNL1       -0.1659
     16 F           5.5777   -0.4114    3.1854 F       1  UNL1       -0.1659
     17 F           6.7879   -2.3488    3.1526 F       1  UNL1       -0.1659
     18 C           4.6313   -2.3109    1.1406 C.ar    1  UNL1       -0.0237
     19 C           0.7310   -2.0426    1.2480 C.3     1  UNL1        0.0207
     20 C           0.7423   -0.5108    1.2420 C.3     1  UNL1       -0.0359
     21 H           1.0039    1.9031    0.0027 H       1  UNL1        0.0232
     22 H          -0.5459    1.8868   -0.8726 H       1  UNL1        0.0232
     23 H          -0.5289    1.8773    0.9072 H       1  UNL1        0.0232
     24 H          -1.0206   -0.3812    0.0102 H       1  UNL1        0.0299
     25 H           0.2028   -0.1168   -2.1406 H       1  UNL1        0.0281
     26 H           1.7472   -0.1413   -1.2548 H       1  UNL1        0.0281
     27 H          -0.3204   -2.3854   -1.3749 H       1  UNL1        0.0444
     28 H           1.2978   -2.3867   -2.1225 H       1  UNL1        0.0444
     29 H           4.1347   -2.5708   -2.1857 H       1  UNL1        0.0637
     30 H           6.2225   -1.2650   -2.1994 H       1  UNL1        0.0618
     31 H           7.2926   -0.6319   -0.0743 H       1  UNL1        0.0623
     32 H           4.1848   -2.6057    2.0788 H       1  UNL1        0.0642
     33 H          -0.2926   -2.4001    1.3596 H       1  UNL1        0.0444
     34 H           1.3404   -2.4092    2.0741 H       1  UNL1        0.0444
     35 H           1.7723   -0.1546    1.2216 H       1  UNL1        0.0281
     36 H           0.2462   -0.1397    2.1388 H       1  UNL1        0.0281
@<TRIPOS>BOND
     1     1     2    1
     2     1    21    1
     3     1    22    1
     4     1    23    1
     5     2    20    1
     6     2     3    1
     7     2    24    1
     8     3     4    1
     9     3    25    1
    10     3    26    1
    11     4     5    1
    12     4    27    1
    13     4    28    1
    14     6     5    1
    15     5    19    1
    16     6     7    2
    17     6     8    2
    18     6     9    1
    19     9    18   ar
    20     9    10   ar
    21    10    11   ar
    22    10    29    1
    23    11    12   ar
    24    11    30    1
    25    12    13   ar
    26    12    31    1
    27    13    14    1
    28    13    18   ar
    29    14    15    1
    30    14    16    1
    31    14    17    1
    32    18    32    1
    33    19    20    1
    34    19    33    1
    35    19    34    1
    36    20    35    1
    37    20    36    1
