@<TRIPOS>MOLECULE
ZINC000016576325
 62 64 0 0 0
SMALL
GASTEIGER

@<TRIPOS>ATOM
      1 C          -0.0187    1.5258    0.0104 C.3     1  UNL1       -0.0466
      2 C           0.0021   -0.0041    0.0020 C.3     1  UNL1        0.0206
      3 H           0.5293   -0.3651    0.8851 H       1  UNL1        0.0495
      4 C           0.7182   -0.4975   -1.2568 C.3     1  UNL1       -0.0308
      5 C           0.8493   -2.0210   -1.2049 C.3     1  UNL1       -0.0260
      6 C           1.5546   -2.5070   -2.4448 C.ar    1  UNL1       -0.0473
      7 C           0.8244   -2.8341   -3.5721 C.ar    1  UNL1       -0.0586
      8 C           1.4715   -3.2799   -4.7094 C.ar    1  UNL1       -0.0615
      9 C           2.8487   -3.3982   -4.7196 C.ar    1  UNL1       -0.0617
     10 C           3.5790   -3.0702   -3.5927 C.ar    1  UNL1       -0.0615
     11 C           2.9323   -2.6203   -2.4567 C.ar    1  UNL1       -0.0586
     12 N          -1.3723   -0.5112    0.0124 N.am    1  UNL1       -0.3116
     13 C          -2.0286   -0.6552    1.1807 C.2     1  UNL1        0.2290
     14 O          -1.4814   -0.3650    2.2235 O.2     1  UNL1       -0.2743
     15 C          -3.4424   -1.1768    1.1914 C.3     1  UNL1        0.0968
     16 N          -3.9291   -1.2403    2.5718 N.3     1  UNL1       -0.1675
     17 C          -4.5122   -0.0513    3.1983 C.3     1  UNL1        0.0250
     18 C          -5.9955    0.0413    2.8347 C.3     1  UNL1       -0.0132
     19 C          -6.5952    1.2644    3.4792 C.ar    1  UNL1       -0.0461
     20 C          -7.1430    1.1800    4.7456 C.ar    1  UNL1       -0.0585
     21 C          -7.6932    2.3020    5.3368 C.ar    1  UNL1       -0.0615
     22 C          -7.6952    3.5083    4.6618 C.ar    1  UNL1       -0.0617
     23 C          -7.1466    3.5928    3.3958 C.ar    1  UNL1       -0.0615
     24 C          -6.5926    2.4719    2.8063 C.ar    1  UNL1       -0.0585
     25 S          -3.8201   -2.6561    3.4239 S.O2    1  UNL1        0.0613
     26 O          -4.9078   -2.6588    4.3383 O.2     1  UNL1       -0.1528
     27 O          -3.6065   -3.6848    2.4671 O.2     1  UNL1       -0.1528
     28 C          -2.3531   -2.5682    4.3959 C.ar    1  UNL1        0.1055
     29 C          -1.1533   -3.0199    3.8790 C.ar    1  UNL1       -0.0353
     30 C          -0.0024   -2.9509    4.6416 C.ar    1  UNL1       -0.0599
     31 C          -0.0513   -2.4298    5.9210 C.ar    1  UNL1       -0.0616
     32 C          -1.2509   -1.9773    6.4377 C.ar    1  UNL1       -0.0599
     33 C          -2.4010   -2.0423    5.6735 C.ar    1  UNL1       -0.0353
     34 H           1.0039    1.9031    0.0027 H       1  UNL1        0.0247
     35 H          -0.5459    1.8868   -0.8726 H       1  UNL1        0.0247
     36 H          -0.5289    1.8773    0.9072 H       1  UNL1        0.0247
     37 H           0.1430   -0.2121   -2.1375 H       1  UNL1        0.0286
     38 H           1.7103   -0.0491   -1.3098 H       1  UNL1        0.0286
     39 H           1.4245   -2.3064   -0.3242 H       1  UNL1        0.0314
     40 H          -0.1428   -2.4694   -1.1520 H       1  UNL1        0.0314
     41 H          -0.2516   -2.7418   -3.5641 H       1  UNL1        0.0620
     42 H           0.9009   -3.5362   -5.5899 H       1  UNL1        0.0618
     43 H           3.3542   -3.7471   -5.6080 H       1  UNL1        0.0618
     44 H           4.6550   -3.1628   -3.6005 H       1  UNL1        0.0618
     45 H           3.5028   -2.3640   -1.5763 H       1  UNL1        0.0620
     46 H          -1.8100   -0.7432   -0.8215 H       1  UNL1        0.1490
     47 H          -4.0803   -0.5097    0.6116 H       1  UNL1        0.0539
     48 H          -3.4651   -2.1740    0.7520 H       1  UNL1        0.0539
     49 H          -4.4072   -0.1226    4.2809 H       1  UNL1        0.0447
     50 H          -3.9942    0.8387    2.8409 H       1  UNL1        0.0447
     51 H          -6.1004    0.1126    1.7521 H       1  UNL1        0.0326
     52 H          -6.5134   -0.8487    3.1921 H       1  UNL1        0.0326
     53 H          -7.1415    0.2376    5.2729 H       1  UNL1        0.0620
     54 H          -8.1218    2.2359    6.3259 H       1  UNL1        0.0618
     55 H          -8.1257    4.3847    5.1234 H       1  UNL1        0.0618
     56 H          -7.1484    4.5352    2.8683 H       1  UNL1        0.0618
     57 H          -6.1639    2.5379    1.8172 H       1  UNL1        0.0620
     58 H          -1.1152   -3.4270    2.8794 H       1  UNL1        0.0637
     59 H           0.9348   -3.3045    4.2379 H       1  UNL1        0.0618
     60 H           0.8478   -2.3766    6.5171 H       1  UNL1        0.0618
     61 H          -1.2891   -1.5704    7.4374 H       1  UNL1        0.0618
     62 H          -3.3383   -1.6887    6.0771 H       1  UNL1        0.0637
@<TRIPOS>BOND
     1     1     2    1
     2     1    34    1
     3     1    35    1
     4     1    36    1
     5     2     3    1
     6     2     4    1
     7     2    12    1
     8     4     5    1
     9     4    37    1
    10     4    38    1
    11     5     6    1
    12     5    39    1
    13     5    40    1
    14     6    11   ar
    15     6     7   ar
    16     7     8   ar
    17     7    41    1
    18     8     9   ar
    19     8    42    1
    20     9    10   ar
    21     9    43    1
    22    10    11   ar
    23    10    44    1
    24    11    45    1
    25    12    13   am
    26    12    46    1
    27    13    14    2
    28    13    15    1
    29    15    16    1
    30    15    47    1
    31    15    48    1
    32    16    17    1
    33    25    16    1
    34    17    18    1
    35    17    49    1
    36    17    50    1
    37    18    19    1
    38    18    51    1
    39    18    52    1
    40    19    24   ar
    41    19    20   ar
    42    20    21   ar
    43    20    53    1
    44    21    22   ar
    45    21    54    1
    46    22    23   ar
    47    22    55    1
    48    23    24   ar
    49    23    56    1
    50    24    57    1
    51    25    26    2
    52    25    27    2
    53    25    28    1
    54    28    33   ar
    55    28    29   ar
    56    29    30   ar
    57    29    58    1
    58    30    31   ar
    59    30    59    1
    60    31    32   ar
    61    31    60    1
    62    32    33   ar
    63    32    61    1
    64    33    62    1
