@<TRIPOS>MOLECULE
ZINC000085598159
 54 56 0 0 0
SMALL
GASTEIGER

@<TRIPOS>ATOM
      1 C           0.0145    1.5034    0.0106 C.3     1  UNL1       -0.0225
      2 C           0.0238   -0.0035    0.0023 C.ar    1  UNL1        0.0403
      3 C           0.0232   -0.7852   -1.1040 C.ar    1  UNL1        0.1292
      4 S           0.0122   -0.2206   -2.7731 S.O2    1  UNL1        0.0628
      5 O          -0.5293   -1.2792   -3.5512 O.2     1  UNL1       -0.1528
      6 O          -0.5402    1.0884   -2.7502 O.2     1  UNL1       -0.1528
      7 N           1.5908   -0.0539   -3.2446 N.3     1  UNL1       -0.1765
      8 C           2.2478    1.2160   -3.0300 C.3     1  UNL1        0.0205
      9 C           2.0278    2.1293   -4.2611 C.3     1  UNL1       -0.0386
     10 C           2.8089    1.6389   -5.4070 C.3     1  UNL1       -0.0518
     11 C           2.4085    0.2488   -5.8917 C.3     1  UNL1       -0.0518
     12 C           3.1302   -0.7933   -5.0735 C.3     1  UNL1       -0.0386
     13 C           2.2710   -1.2097   -3.8611 C.3     1  UNL1        0.0205
     14 C           0.0335   -2.1197   -0.6864 C.ar    1  UNL1        0.0059
     15 C           0.0371   -3.3363   -1.5757 C.3     1  UNL1       -0.0357
     16 C           0.0404   -2.1126    0.6925 C.ar    1  UNL1        0.1072
     17 C           0.0521   -3.2910    1.5653 C.2     1  UNL1        0.2648
     18 O           0.0567   -4.4073    1.0805 O.2     1  UNL1       -0.2682
     19 N           0.0579   -3.1378    2.9043 N.am    1  UNL1       -0.2803
     20 C          -0.0286   -4.2581    3.7366 C.ar    1  UNL1        0.0342
     21 C          -0.7254   -4.1822    4.9355 C.ar    1  UNL1       -0.0404
     22 C          -0.8089   -5.2907    5.7553 C.ar    1  UNL1       -0.0595
     23 C          -0.1994   -6.4748    5.3838 C.ar    1  UNL1       -0.0500
     24 C           0.4957   -6.5536    4.1906 C.ar    1  UNL1        0.0566
     25 C           1.1589   -7.8461    3.7899 C.3     1  UNL1        0.4175
     26 F           0.9337   -8.8115    4.7771 F       1  UNL1       -0.1659
     27 F           0.6239   -8.2878    2.5751 F       1  UNL1       -0.1659
     28 F           2.5350   -7.6390    3.6456 F       1  UNL1       -0.1659
     29 C           0.5774   -5.4511    3.3633 C.ar    1  UNL1       -0.0288
     30 N           0.0402   -0.7979    1.1004 N.ar    1  UNL1       -0.3528
     31 H           1.0399    1.8732    0.0025 H       1  UNL1        0.0292
     32 H          -0.5104    1.8684   -0.8722 H       1  UNL1        0.0292
     33 H          -0.4927    1.8586    0.9077 H       1  UNL1        0.0292
     34 H           1.8314    1.6949   -2.1438 H       1  UNL1        0.0444
     35 H           3.3157    1.0524   -2.8856 H       1  UNL1        0.0444
     36 H           0.9695    2.1348   -4.5217 H       1  UNL1        0.0278
     37 H           2.3422    3.1443   -4.0181 H       1  UNL1        0.0278
     38 H           2.6902    2.3408   -6.2325 H       1  UNL1        0.0266
     39 H           3.8614    1.6171   -5.1246 H       1  UNL1        0.0266
     40 H           1.3322    0.1198   -5.7773 H       1  UNL1        0.0266
     41 H           2.6787    0.1380   -6.9419 H       1  UNL1        0.0266
     42 H           3.3274   -1.6674   -5.6941 H       1  UNL1        0.0278
     43 H           4.0760   -0.3834   -4.7190 H       1  UNL1        0.0278
     44 H           2.9121   -1.6873   -3.1202 H       1  UNL1        0.0444
     45 H           1.5184   -1.9263   -4.1901 H       1  UNL1        0.0444
     46 H           1.0656   -3.6231   -1.7949 H       1  UNL1        0.0279
     47 H          -0.4692   -4.1580   -1.0693 H       1  UNL1        0.0279
     48 H          -0.4825   -3.1077   -2.5062 H       1  UNL1        0.0279
     49 H           0.1221   -2.2504    3.2906 H       1  UNL1        0.1552
     50 H          -1.2012   -3.2574    5.2266 H       1  UNL1        0.0636
     51 H          -1.3506   -5.2324    6.6878 H       1  UNL1        0.0618
     52 H          -0.2659   -7.3400    6.0268 H       1  UNL1        0.0623
     53 H           1.1204   -5.5132    2.4318 H       1  UNL1        0.0642
     54 H           0.0447   -0.4911    2.0206 H       1  UNL1        0.1658
@<TRIPOS>BOND
     1     1     2    1
     2     1    31    1
     3     1    32    1
     4     1    33    1
     5     2    30   ar
     6     2     3   ar
     7     3     4    1
     8     3    14   ar
     9     4     5    2
    10     4     6    2
    11     4     7    1
    12     7    13    1
    13     7     8    1
    14     8     9    1
    15     8    34    1
    16     8    35    1
    17     9    10    1
    18     9    36    1
    19     9    37    1
    20    10    11    1
    21    10    38    1
    22    10    39    1
    23    11    12    1
    24    11    40    1
    25    11    41    1
    26    12    13    1
    27    12    42    1
    28    12    43    1
    29    13    44    1
    30    13    45    1
    31    14    15    1
    32    14    16   ar
    33    15    46    1
    34    15    47    1
    35    15    48    1
    36    16    17    1
    37    16    30   ar
    38    17    18    2
    39    17    19   am
    40    19    20    1
    41    19    49    1
    42    20    29   ar
    43    20    21   ar
    44    21    22   ar
    45    21    50    1
    46    22    23   ar
    47    22    51    1
    48    23    24   ar
    49    23    52    1
    50    24    25    1
    51    24    29   ar
    52    25    26    1
    53    25    27    1
    54    25    28    1
    55    29    53    1
    56    30    54    1
