@<TRIPOS>MOLECULE
ZINC000009493965
 60 62 0 0 0
SMALL
GASTEIGER

@<TRIPOS>ATOM
      1 C          -0.0352    1.4062   -0.0209 C.3     1  UNL1        0.0364
      2 O          -0.0133   -0.0227   -0.0197 O.3     1  UNL1       -0.3829
      3 C           0.6626   -0.5927    1.1029 C.3     1  UNL1        0.0485
      4 C           0.6242   -2.1188    1.0003 C.3     1  UNL1       -0.0150
      5 C           1.3479   -2.7291    2.2022 C.3     1  UNL1        0.0231
      6 N           1.3112   -4.1903    2.1040 N.3     1  UNL1       -0.1677
      7 C           2.3226   -4.8971    1.3142 C.3     1  UNL1        0.0971
      8 C           3.5483   -5.1290    2.1597 C.2     1  UNL1        0.2330
      9 O           3.5744   -4.7421    3.3090 O.2     1  UNL1       -0.2740
     10 N           4.6155   -5.7664    1.6389 N.am    1  UNL1       -0.2844
     11 C           5.7902   -5.8968    2.3921 C.ar    1  UNL1        0.0335
     12 C           7.0273   -5.8422    1.7638 C.ar    1  UNL1       -0.0387
     13 C           8.1846   -5.9710    2.5055 C.ar    1  UNL1       -0.0389
     14 C           8.1114   -6.1548    3.8802 C.ar    1  UNL1        0.0299
     15 N           9.2840   -6.2849    4.6320 N.pl3   1  UNL1       -0.3255
     16 C          10.1122   -7.3907    4.1293 C.3     1  UNL1        0.0357
     17 C          11.4090   -7.4593    4.9401 C.3     1  UNL1        0.0634
     18 O          11.0912   -7.6079    6.3265 O.3     1  UNL1       -0.3767
     19 C          10.2860   -6.5479    6.8494 C.3     1  UNL1        0.0634
     20 C           8.9778   -6.4700    6.0580 C.3     1  UNL1        0.0357
     21 C           6.8740   -6.2090    4.5085 C.ar    1  UNL1       -0.0389
     22 C           5.7170   -6.0749    3.7672 C.ar    1  UNL1       -0.0387
     23 S           0.1263   -5.0432    2.8856 S.O2    1  UNL1        0.0613
     24 O           0.6370   -6.3552    3.0782 O.2     1  UNL1       -0.1528
     25 O          -0.3231   -4.2197    3.9529 O.2     1  UNL1       -0.1528
     26 C          -1.2290   -5.1956    1.7700 C.ar    1  UNL1        0.1055
     27 C          -2.2175   -4.2296    1.7474 C.ar    1  UNL1       -0.0353
     28 C          -3.2808   -4.3491    0.8722 C.ar    1  UNL1       -0.0599
     29 C          -3.3553   -5.4344    0.0192 C.ar    1  UNL1       -0.0616
     30 C          -2.3662   -6.3999    0.0412 C.ar    1  UNL1       -0.0599
     31 C          -1.3007   -6.2782    0.9134 C.ar    1  UNL1       -0.0353
     32 H           0.9867    1.7852   -0.0343 H       1  UNL1        0.0523
     33 H          -0.5658    1.7607   -0.9045 H       1  UNL1        0.0523
     34 H          -0.5431    1.7625    0.8753 H       1  UNL1        0.0523
     35 H           1.6990   -0.2552    1.1128 H       1  UNL1        0.0560
     36 H           0.1692   -0.2778    2.0224 H       1  UNL1        0.0560
     37 H          -0.4121   -2.4563    0.9904 H       1  UNL1        0.0300
     38 H           1.1177   -2.4336    0.0808 H       1  UNL1        0.0300
     39 H           2.3843   -2.3915    2.2121 H       1  UNL1        0.0445
     40 H           0.8545   -2.4142    3.1217 H       1  UNL1        0.0445
     41 H           1.9218   -5.8556    0.9847 H       1  UNL1        0.0539
     42 H           2.5895   -4.2965    0.4446 H       1  UNL1        0.0539
     43 H           4.5706   -6.1350    0.7428 H       1  UNL1        0.1548
     44 H           7.0841   -5.6992    0.6948 H       1  UNL1        0.0637
     45 H           9.1468   -5.9292    2.0167 H       1  UNL1        0.0637
     46 H           9.5679   -8.3294    4.2330 H       1  UNL1        0.0486
     47 H          10.3482   -7.2202    3.0789 H       1  UNL1        0.0486
     48 H          12.0006   -8.3128    4.6088 H       1  UNL1        0.0575
     49 H          11.9789   -6.5418    4.7935 H       1  UNL1        0.0575
     50 H          10.0654   -6.7421    7.8990 H       1  UNL1        0.0575
     51 H          10.8232   -5.6038    6.7584 H       1  UNL1        0.0575
     52 H           8.3857   -5.6275    6.4154 H       1  UNL1        0.0486
     53 H           8.4154   -7.3940    6.1925 H       1  UNL1        0.0486
     54 H           6.8168   -6.3523    5.5775 H       1  UNL1        0.0637
     55 H           4.7547   -6.1167    4.2557 H       1  UNL1        0.0637
     56 H          -2.1594   -3.3817    2.4138 H       1  UNL1        0.0637
     57 H          -4.0535   -3.5948    0.8550 H       1  UNL1        0.0618
     58 H          -4.1864   -5.5282   -0.6641 H       1  UNL1        0.0618
     59 H          -2.4246   -7.2480   -0.6250 H       1  UNL1        0.0618
     60 H          -0.5280   -7.0325    0.9306 H       1  UNL1        0.0637
@<TRIPOS>BOND
     1     1     2    1
     2     1    32    1
     3     1    33    1
     4     1    34    1
     5     2     3    1
     6     3     4    1
     7     3    35    1
     8     3    36    1
     9     4     5    1
    10     4    37    1
    11     4    38    1
    12     5     6    1
    13     5    39    1
    14     5    40    1
    15     6     7    1
    16    23     6    1
    17     7     8    1
    18     7    41    1
    19     7    42    1
    20     8     9    2
    21     8    10   am
    22    10    11    1
    23    10    43    1
    24    11    22   ar
    25    11    12   ar
    26    12    13   ar
    27    12    44    1
    28    13    14   ar
    29    13    45    1
    30    14    15    1
    31    14    21   ar
    32    15    20    1
    33    15    16    1
    34    16    17    1
    35    16    46    1
    36    16    47    1
    37    17    18    1
    38    17    48    1
    39    17    49    1
    40    18    19    1
    41    19    20    1
    42    19    50    1
    43    19    51    1
    44    20    52    1
    45    20    53    1
    46    21    22   ar
    47    21    54    1
    48    22    55    1
    49    23    24    2
    50    23    25    2
    51    23    26    1
    52    26    31   ar
    53    26    27   ar
    54    27    28   ar
    55    27    56    1
    56    28    29   ar
    57    28    57    1
    58    29    30   ar
    59    29    58    1
    60    30    31   ar
    61    30    59    1
    62    31    60    1
