@<TRIPOS>MOLECULE
ZINC000007881273
 51 52 0 0 0
SMALL
GASTEIGER

@<TRIPOS>ATOM
      1 C          -0.0187    1.5258    0.0104 C.3     1  UNL1       -0.0307
      2 C           0.0021   -0.0041    0.0020 C.3     1  UNL1        0.0868
      3 O          -1.3386   -0.4987    0.0122 O.3     1  UNL1       -0.4908
      4 C          -1.4984   -1.8485    0.0064 C.ar    1  UNL1        0.1388
      5 C          -0.3882   -2.6793   -0.0028 C.ar    1  UNL1       -0.0166
      6 C          -0.5531   -4.0514   -0.0082 C.ar    1  UNL1       -0.0318
      7 C          -1.8234   -4.5965   -0.0047 C.ar    1  UNL1        0.1071
      8 S          -2.0295   -6.3464   -0.0115 S.O2    1  UNL1        0.0613
      9 O          -3.3201   -6.5963   -0.5511 O.2     1  UNL1       -0.1528
     10 O          -0.8378   -6.8886   -0.5639 O.2     1  UNL1       -0.1528
     11 N          -2.0796   -6.8402    1.5683 N.3     1  UNL1       -0.1681
     12 C          -3.3617   -6.9103    2.2736 C.3     1  UNL1        0.0182
     13 C          -3.9114   -8.3358    2.1920 C.3     1  UNL1       -0.0507
     14 C          -0.8417   -7.2070    2.2607 C.3     1  UNL1        0.0968
     15 C          -0.3219   -6.0167    3.0249 C.2     1  UNL1        0.2289
     16 O          -0.9260   -4.9655    2.9943 O.2     1  UNL1       -0.2743
     17 N           0.8143   -6.1204    3.7424 N.am    1  UNL1       -0.3117
     18 C           1.3196   -4.9632    4.4854 C.3     1  UNL1        0.0379
     19 C           2.6124   -5.3463    5.2084 C.3     1  UNL1        0.0742
     20 H           2.4427   -6.2276    5.8270 H       1  UNL1        0.0611
     21 C           3.0873   -4.1713    6.0900 C.3     1  UNL1       -0.0231
     22 C           4.6274   -4.2137    5.8940 C.3     1  UNL1       -0.0271
     23 C           4.7235   -4.6815    4.4199 C.3     1  UNL1        0.0482
     24 O           3.6431   -5.6157    4.2510 O.3     1  UNL1       -0.3750
     25 C          -2.9328   -3.7709    0.0045 C.ar    1  UNL1       -0.0134
     26 C          -2.7735   -2.3980    0.0157 C.ar    1  UNL1        0.0844
     27 CL         -4.1662   -1.3617    0.0273 Cl      1  UNL1       -0.0797
     28 H           1.0039    1.9031    0.0027 H       1  UNL1        0.0262
     29 H          -0.5459    1.8868   -0.8726 H       1  UNL1        0.0262
     30 H          -0.5289    1.8773    0.9072 H       1  UNL1        0.0262
     31 H           0.5123   -0.3556   -0.8948 H       1  UNL1        0.0694
     32 H           0.5293   -0.3651    0.8851 H       1  UNL1        0.0694
     33 H           0.6047   -2.2544   -0.0062 H       1  UNL1        0.0655
     34 H           0.3115   -4.6985   -0.0154 H       1  UNL1        0.0638
     35 H          -3.2170   -6.6359    3.3186 H       1  UNL1        0.0441
     36 H          -4.0687   -6.2212    1.8116 H       1  UNL1        0.0441
     37 H          -4.8654   -8.3879    2.7168 H       1  UNL1        0.0243
     38 H          -4.0561   -8.6102    1.1471 H       1  UNL1        0.0243
     39 H          -3.2044   -9.0248    2.6541 H       1  UNL1        0.0243
     40 H          -1.0414   -8.0246    2.9534 H       1  UNL1        0.0539
     41 H          -0.0969   -7.5233    1.5304 H       1  UNL1        0.0539
     42 H           1.2974   -6.9611    3.7670 H       1  UNL1        0.1488
     43 H           1.5193   -4.1457    3.7927 H       1  UNL1        0.0487
     44 H           0.5748   -4.6469    5.2157 H       1  UNL1        0.0487
     45 H           2.6766   -3.2272    5.7322 H       1  UNL1        0.0291
     46 H           2.8244   -4.3389    7.1344 H       1  UNL1        0.0291
     47 H           5.0670   -3.2245    6.0217 H       1  UNL1        0.0288
     48 H           5.0892   -4.9367    6.5664 H       1  UNL1        0.0288
     49 H           4.6008   -3.8341    3.7454 H       1  UNL1        0.0560
     50 H           5.6795   -5.1734    4.2407 H       1  UNL1        0.0560
     51 H          -3.9242   -4.1992    0.0072 H       1  UNL1        0.0653
@<TRIPOS>BOND
     1     1     2    1
     2     1    28    1
     3     1    29    1
     4     1    30    1
     5     2     3    1
     6     2    31    1
     7     2    32    1
     8     3     4    1
     9     4    26   ar
    10     4     5   ar
    11     5     6   ar
    12     5    33    1
    13     6     7   ar
    14     6    34    1
    15     7     8    1
    16     7    25   ar
    17     8     9    2
    18     8    10    2
    19     8    11    1
    20    11    12    1
    21    11    14    1
    22    12    13    1
    23    12    35    1
    24    12    36    1
    25    13    37    1
    26    13    38    1
    27    13    39    1
    28    14    15    1
    29    14    40    1
    30    14    41    1
    31    15    16    2
    32    15    17   am
    33    17    18    1
    34    17    42    1
    35    18    19    1
    36    18    43    1
    37    18    44    1
    38    19    20    1
    39    19    24    1
    40    19    21    1
    41    21    22    1
    42    21    45    1
    43    21    46    1
    44    22    23    1
    45    22    47    1
    46    22    48    1
    47    23    24    1
    48    23    49    1
    49    23    50    1
    50    25    26   ar
    51    25    51    1
    52    26    27    1
