@<TRIPOS>MOLECULE
ZINC000065467385
 40 41 0 0 0
SMALL
GASTEIGER

@<TRIPOS>ATOM
      1 C           1.0908    0.8760    0.3667 C.3     1  UNL1        0.0817
      2 O           1.2493   -0.5454    0.1161 O.3     1  UNL1       -0.4668
      3 C           0.5971   -1.0542   -0.9411 C.2     1  UNL1        0.3260
      4 O          -0.0836   -0.3357   -1.6341 O.2     1  UNL1       -0.2490
      5 C           0.7140   -2.5217   -1.2637 C.3     1  UNL1        0.1308
      6 H           1.3499   -3.0088   -0.5244 H       1  UNL1        0.0596
      7 C          -0.6770   -3.1634   -1.2472 C.3     1  UNL1        0.0008
      8 C          -0.5687   -4.6180   -1.7104 C.3     1  UNL1        0.0585
      9 H           0.1119   -5.1588   -1.0529 H       1  UNL1        0.0594
     10 O          -1.8597   -5.2291   -1.6658 O.3     1  UNL1       -0.3917
     11 C          -0.0342   -4.6603   -3.1438 C.3     1  UNL1       -0.0123
     12 C           1.3640   -4.0355   -3.1817 C.3     1  UNL1        0.0237
     13 N           1.2984   -2.6869   -2.6015 N.3     1  UNL1       -0.1627
     14 S           1.8664   -1.3781   -3.4422 S.O2    1  UNL1        0.0616
     15 O           2.1692   -0.3811   -2.4760 O.2     1  UNL1       -0.1528
     16 O           2.8215   -1.8792   -4.3674 O.2     1  UNL1       -0.1528
     17 C           0.5267   -0.7520   -4.4002 C.ar    1  UNL1        0.1055
     18 C           0.1172   -1.4229   -5.5374 C.ar    1  UNL1       -0.0348
     19 C          -0.9338   -0.9317   -6.2889 C.ar    1  UNL1       -0.0483
     20 C          -1.5758    0.2301   -5.9031 C.ar    1  UNL1        0.0549
     21 C          -2.7213    0.7659   -6.7227 C.3     1  UNL1        0.4174
     22 F          -3.9231    0.2238   -6.2547 F       1  UNL1       -0.1659
     23 F          -2.7634    2.1597   -6.6103 F       1  UNL1       -0.1659
     24 F          -2.5409    0.4114   -8.0640 F       1  UNL1       -0.1659
     25 C          -1.1672    0.9003   -4.7651 C.ar    1  UNL1       -0.0483
     26 C          -0.1186    0.4070   -4.0115 C.ar    1  UNL1       -0.0348
     27 H           1.4472    1.4390   -0.4960 H       1  UNL1        0.0661
     28 H           0.0377    1.0997    0.5368 H       1  UNL1        0.0661
     29 H           1.6687    1.1562    1.2474 H       1  UNL1        0.0661
     30 H          -1.0797   -3.1330   -0.2348 H       1  UNL1        0.0311
     31 H          -1.3382   -2.6159   -1.9189 H       1  UNL1        0.0311
     32 H          -1.8668   -6.1544   -1.9469 H       1  UNL1        0.2098
     33 H           0.0205   -5.6953   -3.4813 H       1  UNL1        0.0303
     34 H          -0.7015   -4.0987   -3.7976 H       1  UNL1        0.0303
     35 H           2.0537   -4.6477   -2.6007 H       1  UNL1        0.0445
     36 H           1.7084   -3.9730   -4.2140 H       1  UNL1        0.0445
     37 H           0.6188   -2.3306   -5.8388 H       1  UNL1        0.0637
     38 H          -1.2532   -1.4555   -7.1778 H       1  UNL1        0.0624
     39 H          -1.6690    1.8078   -4.4635 H       1  UNL1        0.0624
     40 H           0.2005    0.9306   -3.1224 H       1  UNL1        0.0637
@<TRIPOS>BOND
     1     1     2    1
     2     1    27    1
     3     1    28    1
     4     1    29    1
     5     2     3    1
     6     3     4    2
     7     3     5    1
     8     5     6    1
     9     5    13    1
    10     5     7    1
    11     7     8    1
    12     7    30    1
    13     7    31    1
    14     8     9    1
    15     8    10    1
    16     8    11    1
    17    10    32    1
    18    11    12    1
    19    11    33    1
    20    11    34    1
    21    12    13    1
    22    12    35    1
    23    12    36    1
    24    14    13    1
    25    14    15    2
    26    14    16    2
    27    14    17    1
    28    17    26   ar
    29    17    18   ar
    30    18    19   ar
    31    18    37    1
    32    19    20   ar
    33    19    38    1
    34    20    21    1
    35    20    25   ar
    36    21    22    1
    37    21    23    1
    38    21    24    1
    39    25    26   ar
    40    25    39    1
    41    26    40    1
