@<TRIPOS>MOLECULE
ZINC000060348751
 42 44 0 0 0
SMALL
GASTEIGER

@<TRIPOS>ATOM
      1 O          -0.1618    0.1401   -0.2290 O.2     1  UNL1       -0.1528
      2 S          -0.3292    1.5512   -0.2299 S.O2    1  UNL1        0.0612
      3 O           0.7464    2.4614   -0.4141 O.2     1  UNL1       -0.1528
      4 C          -1.5072    1.9117   -1.4897 C.ar    1  UNL1        0.1055
      5 C          -2.4079    0.9430   -1.8913 C.ar    1  UNL1       -0.0348
      6 C          -3.3321    1.2258   -2.8797 C.ar    1  UNL1       -0.0483
      7 C          -3.3558    2.4773   -3.4662 C.ar    1  UNL1        0.0549
      8 C          -4.3629    2.7854   -4.5440 C.3     1  UNL1        0.4174
      9 F          -5.5287    3.2939   -3.9613 F       1  UNL1       -0.1659
     10 F          -3.8294    3.7335   -5.4236 F       1  UNL1       -0.1659
     11 F          -4.6657    1.6148   -5.2477 F       1  UNL1       -0.1659
     12 C          -2.4559    3.4464   -3.0637 C.ar    1  UNL1       -0.0483
     13 C          -1.5343    3.1648   -2.0726 C.ar    1  UNL1       -0.0348
     14 N          -1.0279    1.9402    1.2202 N.3     1  UNL1       -0.1687
     15 C          -0.7663    3.2405    1.8523 C.3     1  UNL1        0.0210
     16 C          -0.2773    3.0031    3.2845 C.3     1  UNL1       -0.0385
     17 C          -1.2944    2.1354    4.0293 C.3     1  UNL1       -0.0502
     18 C          -1.4195    0.7796    3.3306 C.3     1  UNL1       -0.0309
     19 C          -1.9259    0.9941    1.8962 C.3     1  UNL1        0.0827
     20 H          -2.9381    1.3978    1.9225 H       1  UNL1        0.0530
     21 C          -1.9253   -0.3401    1.1472 C.3     1  UNL1        0.1762
     22 O          -0.7143   -1.0712    1.4362 O.3     1  UNL1       -0.3474
     23 C          -1.0719   -2.4403    1.1272 C.3     1  UNL1        0.0742
     24 C          -2.5426   -2.5257    1.5911 C.3     1  UNL1        0.0742
     25 O          -3.0102   -1.1649    1.6055 O.3     1  UNL1       -0.3474
     26 H          -2.3894   -0.0348   -1.4331 H       1  UNL1        0.0637
     27 H          -4.0354    0.4688   -3.1939 H       1  UNL1        0.0624
     28 H          -2.4747    4.4243   -3.5216 H       1  UNL1        0.0624
     29 H          -0.8312    3.9220   -1.7581 H       1  UNL1        0.0637
     30 H          -0.0007    3.7735    1.2884 H       1  UNL1        0.0444
     31 H          -1.6840    3.8283    1.8723 H       1  UNL1        0.0444
     32 H           0.6864    2.4943    3.2603 H       1  UNL1        0.0278
     33 H          -0.1713    3.9597    3.7961 H       1  UNL1        0.0278
     34 H          -0.9609    1.9853    5.0561 H       1  UNL1        0.0266
     35 H          -2.2639    2.6335    4.0318 H       1  UNL1        0.0266
     36 H          -0.4451    0.2917    3.3059 H       1  UNL1        0.0282
     37 H          -2.1266    0.1536    3.8750 H       1  UNL1        0.0282
     38 H          -2.0131   -0.1673    0.0745 H       1  UNL1        0.0926
     39 H          -0.9937   -2.6271    0.0562 H       1  UNL1        0.0584
     40 H          -0.4494   -3.1376    1.6880 H       1  UNL1        0.0584
     41 H          -3.1273   -3.1194    0.8885 H       1  UNL1        0.0584
     42 H          -2.5998   -2.9561    2.5909 H       1  UNL1        0.0584
@<TRIPOS>BOND
     1     1     2    2
     2     2     3    2
     3     2     4    1
     4     2    14    1
     5     4    13   ar
     6     4     5   ar
     7     5     6   ar
     8     5    26    1
     9     6     7   ar
    10     6    27    1
    11     7     8    1
    12     7    12   ar
    13     8     9    1
    14     8    10    1
    15     8    11    1
    16    12    13   ar
    17    12    28    1
    18    13    29    1
    19    14    19    1
    20    14    15    1
    21    15    16    1
    22    15    30    1
    23    15    31    1
    24    16    17    1
    25    16    32    1
    26    16    33    1
    27    17    18    1
    28    17    34    1
    29    17    35    1
    30    18    19    1
    31    18    36    1
    32    18    37    1
    33    19    20    1
    34    19    21    1
    35    21    25    1
    36    21    22    1
    37    21    38    1
    38    22    23    1
    39    23    24    1
    40    23    39    1
    41    23    40    1
    42    24    25    1
    43    24    41    1
    44    24    42    1
