@<TRIPOS>MOLECULE
ZINC000102698510
 39 40 0 0 0
SMALL
GASTEIGER

@<TRIPOS>ATOM
      1 C          -0.0187    1.5258    0.0104 C.3     1  UNL1       -0.0442
      2 C           0.0021   -0.0041    0.0020 C.3     1  UNL1        0.0262
      3 C           0.7421   -0.5109    1.2415 C.3     1  UNL1       -0.0442
      4 C          -1.4333   -0.5336    0.0129 C.3     1  UNL1       -0.0442
      5 N           0.6878   -0.4765   -1.2033 N.am    1  UNL1       -0.3093
      6 C           1.9715   -0.1323   -1.4270 C.2     1  UNL1        0.2313
      7 O           2.5590    0.5687   -0.6305 O.2     1  UNL1       -0.2741
      8 C           2.6769   -0.6183   -2.6669 C.3     1  UNL1        0.0986
      9 N           4.0513   -0.1112   -2.6773 N.am    1  UNL1       -0.2327
     10 C           4.4032    1.0754   -3.2373 C.2     1  UNL1        0.2263
     11 O           3.6561    1.9571   -3.6034 O.2     1  UNL1       -0.2748
     12 C           5.8999    1.0760   -3.3116 C.3     1  UNL1        0.0509
     13 H           6.2342    0.5907   -4.2286 H       1  UNL1        0.0405
     14 C           6.6273    2.3897   -3.1168 C.3     1  UNL1       -0.0229
     15 C           8.0866    2.0552   -2.8894 C.2     1  UNL1       -0.0872
     16 C           8.5241    0.8833   -2.5401 C.2     1  UNL1       -0.0872
     17 C           7.6387   -0.3179   -2.2825 C.3     1  UNL1       -0.0229
     18 C           6.2358    0.1907   -2.0718 C.3     1  UNL1        0.0509
     19 H           6.1851    0.7991   -1.1688 H       1  UNL1        0.0405
     20 C           5.0959   -0.7794   -2.1228 C.2     1  UNL1        0.2263
     21 O           5.1006   -1.9284   -1.7364 O.2     1  UNL1       -0.2748
     22 H           1.0039    1.9031    0.0027 H       1  UNL1        0.0250
     23 H          -0.5459    1.8868   -0.8726 H       1  UNL1        0.0250
     24 H          -0.5289    1.8773    0.9072 H       1  UNL1        0.0250
     25 H           0.2319   -0.1594    2.1383 H       1  UNL1        0.0250
     26 H           0.7568   -1.6008    1.2356 H       1  UNL1        0.0250
     27 H           1.7647   -0.1336    1.2338 H       1  UNL1        0.0250
     28 H          -1.9605   -0.1726   -0.8702 H       1  UNL1        0.0250
     29 H          -1.4185   -1.6235    0.0069 H       1  UNL1        0.0250
     30 H          -1.9435   -0.1821    0.9097 H       1  UNL1        0.0250
     31 H           0.2179   -1.0371   -1.8404 H       1  UNL1        0.1492
     32 H           2.6916   -1.7081   -2.6729 H       1  UNL1        0.0565
     33 H           2.1497   -0.2572   -3.5500 H       1  UNL1        0.0565
     34 H           6.5217    3.0092   -4.0073 H       1  UNL1        0.0315
     35 H           6.2256    2.9124   -2.2487 H       1  UNL1        0.0315
     36 H           8.8118    2.8435   -3.0272 H       1  UNL1        0.0569
     37 H           9.5906    0.7569   -2.4261 H       1  UNL1        0.0569
     38 H           7.6537   -0.9832   -3.1458 H       1  UNL1        0.0315
     39 H           7.9820   -0.8499   -1.3953 H       1  UNL1        0.0315
@<TRIPOS>BOND
     1     1     2    1
     2     1    22    1
     3     1    23    1
     4     1    24    1
     5     2     3    1
     6     2     4    1
     7     2     5    1
     8     3    25    1
     9     3    26    1
    10     3    27    1
    11     4    28    1
    12     4    29    1
    13     4    30    1
    14     5     6   am
    15     5    31    1
    16     6     7    2
    17     6     8    1
    18     8     9    1
    19     8    32    1
    20     8    33    1
    21     9    20   am
    22     9    10   am
    23    10    11    2
    24    10    12    1
    25    12    13    1
    26    12    18    1
    27    12    14    1
    28    14    15    1
    29    14    34    1
    30    14    35    1
    31    15    16    2
    32    15    36    1
    33    16    17    1
    34    16    37    1
    35    17    18    1
    36    17    38    1
    37    17    39    1
    38    18    19    1
    39    18    20    1
    40    20    21    2
