@<TRIPOS>MOLECULE
ZINC000012919446
 47 49 0 0 0
SMALL
GASTEIGER

@<TRIPOS>ATOM
      1 O           0.0912    0.2585   -0.5130 O.2     1  UNL1       -0.2740
      2 C          -0.0807    1.3338    0.0207 C.2     1  UNL1        0.2322
      3 N           0.9418    1.9437    0.6524 N.am    1  UNL1       -0.3099
      4 C           2.2608    1.3077    0.6943 C.3     1  UNL1        0.0369
      5 C           3.2192    2.1882    1.4542 C.ar    1  UNL1       -0.0303
      6 C           3.9537    3.1492    0.7850 C.ar    1  UNL1       -0.0565
      7 C           4.8328    3.9569    1.4820 C.ar    1  UNL1       -0.0498
      8 C           4.9770    3.8038    2.8483 C.ar    1  UNL1        0.0548
      9 C           5.9357    4.6840    3.6080 C.3     1  UNL1        0.4174
     10 F           5.2682    5.8339    4.0432 F       1  UNL1       -0.1659
     11 F           6.4325    3.9864    4.7143 F       1  UNL1       -0.1659
     12 F           6.9964    5.0488    2.7720 F       1  UNL1       -0.1659
     13 C           4.2414    2.8437    3.5177 C.ar    1  UNL1       -0.0498
     14 C           3.3595    2.0386    2.8212 C.ar    1  UNL1       -0.0565
     15 C          -1.4360    1.9910   -0.0277 C.3     1  UNL1        0.1078
     16 H          -1.5944    2.5806    0.8753 H       1  UNL1        0.0575
     17 C          -1.5348    2.8991   -1.2715 C.3     1  UNL1       -0.0260
     18 C          -2.2651    1.9983   -2.3023 C.3     1  UNL1       -0.0366
     19 C          -3.2405    1.2115   -1.3918 C.3     1  UNL1        0.0214
     20 N          -2.4842    0.9670   -0.1465 N.3     1  UNL1       -0.1647
     21 S          -2.7688   -0.2581    0.9308 S.O2    1  UNL1        0.0615
     22 O          -3.3893   -1.3034    0.1950 O.2     1  UNL1       -0.1528
     23 O          -1.5656   -0.4334    1.6662 O.2     1  UNL1       -0.1528
     24 C          -3.9724    0.3252    2.0779 C.ar    1  UNL1        0.1057
     25 C          -3.5737    1.0254    3.2013 C.ar    1  UNL1       -0.0326
     26 C          -4.5168    1.4833    4.1016 C.ar    1  UNL1       -0.0246
     27 C          -5.8615    1.2411    3.8780 C.ar    1  UNL1        0.1235
     28 F          -6.7844    1.6888    4.7573 F       1  UNL1       -0.2055
     29 C          -6.2598    0.5402    2.7523 C.ar    1  UNL1       -0.0246
     30 C          -5.3152    0.0874    1.8509 C.ar    1  UNL1       -0.0326
     31 H           0.8043    2.8038    1.0793 H       1  UNL1        0.1491
     32 H           2.1826    0.3413    1.1923 H       1  UNL1        0.0512
     33 H           2.6274    1.1641   -0.3221 H       1  UNL1        0.0512
     34 H           3.8411    3.2688   -0.2824 H       1  UNL1        0.0621
     35 H           5.4072    4.7072    0.9591 H       1  UNL1        0.0623
     36 H           4.3538    2.7244    4.5851 H       1  UNL1        0.0623
     37 H           2.7849    1.2885    3.3442 H       1  UNL1        0.0621
     38 H          -2.1234    3.7901   -1.0527 H       1  UNL1        0.0286
     39 H          -0.5421    3.1701   -1.6310 H       1  UNL1        0.0286
     40 H          -2.8093    2.5997   -3.0304 H       1  UNL1        0.0279
     41 H          -1.5653    1.3258   -2.7984 H       1  UNL1        0.0279
     42 H          -4.1292    1.8073   -1.1835 H       1  UNL1        0.0444
     43 H          -3.5174    0.2666   -1.8595 H       1  UNL1        0.0444
     44 H          -2.5247    1.2142    3.3755 H       1  UNL1        0.0638
     45 H          -4.2049    2.0297    4.9795 H       1  UNL1        0.0647
     46 H          -7.3084    0.3504    2.5770 H       1  UNL1        0.0647
     47 H          -5.6256   -0.4591    0.9726 H       1  UNL1        0.0638
@<TRIPOS>BOND
     1     1     2    2
     2     2     3   am
     3     2    15    1
     4     3     4    1
     5     3    31    1
     6     4     5    1
     7     4    32    1
     8     4    33    1
     9     5    14   ar
    10     5     6   ar
    11     6     7   ar
    12     6    34    1
    13     7     8   ar
    14     7    35    1
    15     8     9    1
    16     8    13   ar
    17     9    10    1
    18     9    11    1
    19     9    12    1
    20    13    14   ar
    21    13    36    1
    22    14    37    1
    23    15    16    1
    24    15    20    1
    25    15    17    1
    26    17    18    1
    27    17    38    1
    28    17    39    1
    29    18    19    1
    30    18    40    1
    31    18    41    1
    32    19    20    1
    33    19    42    1
    34    19    43    1
    35    21    20    1
    36    21    22    2
    37    21    23    2
    38    21    24    1
    39    24    30   ar
    40    24    25   ar
    41    25    26   ar
    42    25    44    1
    43    26    27   ar
    44    26    45    1
    45    27    28    1
    46    27    29   ar
    47    29    30   ar
    48    29    46    1
    49    30    47    1
