@<TRIPOS>MOLECULE
ZINC000017847791
 47 49 0 0 0
SMALL
GASTEIGER

@<TRIPOS>ATOM
      1 O           0.0648    0.0269    0.2700 O.2     1  UNL1       -0.2700
      2 C          -0.0144    1.2113    0.0087 C.2     1  UNL1        0.2467
      3 C           1.1922    2.0636    0.0674 C.ar    1  UNL1        0.0369
      4 C           1.1220    3.3403    0.6272 C.ar    1  UNL1       -0.0491
      5 C           2.2516    4.1306    0.6789 C.ar    1  UNL1       -0.0494
      6 C           3.4521    3.6603    0.1770 C.ar    1  UNL1        0.0549
      7 C           4.6820    4.5291    0.2368 C.3     1  UNL1        0.4174
      8 F           5.3601    4.2953    1.4379 F       1  UNL1       -0.1659
      9 F           5.5216    4.2236   -0.8398 F       1  UNL1       -0.1659
     10 F           4.3061    5.8749    0.1678 F       1  UNL1       -0.1659
     11 C           3.5286    2.3957   -0.3792 C.ar    1  UNL1       -0.0494
     12 C           2.4078    1.5929   -0.4314 C.ar    1  UNL1       -0.0491
     13 N          -1.2012    1.7465   -0.3400 N.am    1  UNL1       -0.2950
     14 C          -1.2890    3.1435   -0.7879 C.3     1  UNL1        0.0294
     15 C          -1.9631    3.1752   -2.1651 C.3     1  UNL1        0.0364
     16 N          -3.1925    2.3721   -2.1048 N.3     1  UNL1       -0.1736
     17 S          -4.6505    3.0294   -2.5343 S.O2    1  UNL1        0.0609
     18 O          -5.6470    2.2621   -1.8729 O.2     1  UNL1       -0.1528
     19 O          -4.5192    4.4353   -2.3754 O.2     1  UNL1       -0.1528
     20 C          -4.8645    2.7415   -4.2594 C.ar    1  UNL1        0.1055
     21 C          -4.4032    3.6668   -5.1770 C.ar    1  UNL1       -0.0348
     22 C          -4.5710    3.4410   -6.5304 C.ar    1  UNL1       -0.0483
     23 C          -5.1998    2.2897   -6.9663 C.ar    1  UNL1        0.0549
     24 C          -5.3832    2.0437   -8.4417 C.3     1  UNL1        0.4174
     25 F          -4.2764    1.3479   -8.9396 F       1  UNL1       -0.1659
     26 F          -6.5414    1.2865   -8.6478 F       1  UNL1       -0.1659
     27 F          -5.5021    3.2684   -9.1074 F       1  UNL1       -0.1659
     28 C          -5.6598    1.3637   -6.0488 C.ar    1  UNL1       -0.0483
     29 C          -5.4885    1.5877   -4.6955 C.ar    1  UNL1       -0.0348
     30 C          -3.1046    0.9751   -1.6569 C.3     1  UNL1        0.0364
     31 C          -2.4297    0.9418   -0.2850 C.3     1  UNL1        0.0294
     32 H           0.1853    3.7088    1.0187 H       1  UNL1        0.0625
     33 H           2.1986    5.1186    1.1117 H       1  UNL1        0.0623
     34 H           4.4686    2.0347   -0.7695 H       1  UNL1        0.0623
     35 H           2.4688    0.6060   -0.8658 H       1  UNL1        0.0625
     36 H          -1.8820    3.7190   -0.0770 H       1  UNL1        0.0478
     37 H          -0.2877    3.5679   -0.8609 H       1  UNL1        0.0478
     38 H          -2.2106    4.2037   -2.4278 H       1  UNL1        0.0459
     39 H          -1.2889    2.7563   -2.9122 H       1  UNL1        0.0459
     40 H          -3.9120    4.5664   -4.8365 H       1  UNL1        0.0637
     41 H          -4.2113    4.1643   -7.2472 H       1  UNL1        0.0624
     42 H          -6.1507    0.4640   -6.3893 H       1  UNL1        0.0624
     43 H          -5.8479    0.8643   -3.9786 H       1  UNL1        0.0637
     44 H          -4.1060    0.5507   -1.5839 H       1  UNL1        0.0459
     45 H          -2.5117    0.3996   -2.3678 H       1  UNL1        0.0459
     46 H          -2.1828   -0.0872   -0.0237 H       1  UNL1        0.0478
     47 H          -3.1020    1.3608    0.4637 H       1  UNL1        0.0478
@<TRIPOS>BOND
     1     1     2    2
     2     2     3    1
     3     2    13   am
     4     3    12   ar
     5     3     4   ar
     6     4     5   ar
     7     4    32    1
     8     5     6   ar
     9     5    33    1
    10     6     7    1
    11     6    11   ar
    12     7     8    1
    13     7     9    1
    14     7    10    1
    15    11    12   ar
    16    11    34    1
    17    12    35    1
    18    13    31    1
    19    13    14    1
    20    14    15    1
    21    14    36    1
    22    14    37    1
    23    15    16    1
    24    15    38    1
    25    15    39    1
    26    17    16    1
    27    16    30    1
    28    17    18    2
    29    17    19    2
    30    17    20    1
    31    20    29   ar
    32    20    21   ar
    33    21    22   ar
    34    21    40    1
    35    22    23   ar
    36    22    41    1
    37    23    24    1
    38    23    28   ar
    39    24    25    1
    40    24    26    1
    41    24    27    1
    42    28    29   ar
    43    28    42    1
    44    29    43    1
    45    30    31    1
    46    30    44    1
    47    30    45    1
    48    31    46    1
    49    31    47    1
