@<TRIPOS>MOLECULE
ZINC000156102598
 36 37 0 0 0
SMALL
GASTEIGER

@<TRIPOS>ATOM
      1 N          -0.7482    2.8476    2.0415 N.4     1  UNL1        0.2197
      2 H           0.1802    3.2097    2.1997 H       1  UNL1        0.1995
      3 H          -1.2970    2.9504    2.8819 H       1  UNL1        0.1995
      4 H          -1.1852    3.3594    1.2897 H       1  UNL1        0.1995
      5 C          -0.6646    1.4257    1.6822 C.3     1  UNL1       -0.0177
      6 C           0.1154    0.6720    2.7613 C.3     1  UNL1        0.0716
      7 H           1.0796    1.1530    2.9257 H       1  UNL1        0.0533
      8 C          -0.6926    0.6527    4.0760 C.3     1  UNL1       -0.0295
      9 C          -0.4179   -0.7696    4.6318 C.3     1  UNL1       -0.0369
     10 C          -0.3510   -1.6051    3.3291 C.3     1  UNL1        0.0211
     11 N           0.3173   -0.7247    2.3487 N.3     1  UNL1       -0.1685
     12 S           1.1496   -1.2289    1.0089 S.O2    1  UNL1        0.0613
     13 O           1.9595   -0.1337    0.6039 O.2     1  UNL1       -0.1528
     14 O           1.6763   -2.5108    1.3225 O.2     1  UNL1       -0.1528
     15 C          -0.0306   -1.4766   -0.2758 C.ar    1  UNL1        0.1055
     16 C          -0.7063   -2.6788   -0.3712 C.ar    1  UNL1       -0.0348
     17 C          -1.6322   -2.8732   -1.3790 C.ar    1  UNL1       -0.0483
     18 C          -1.8829   -1.8651   -2.2911 C.ar    1  UNL1        0.0549
     19 C          -2.8920   -2.0772   -3.3901 C.3     1  UNL1        0.4174
     20 F          -4.1556   -1.6713   -2.9477 F       1  UNL1       -0.1659
     21 F          -2.5262   -1.3240   -4.5108 F       1  UNL1       -0.1659
     22 F          -2.9310   -3.4332   -3.7321 F       1  UNL1       -0.1659
     23 C          -1.2082   -0.6624   -2.1949 C.ar    1  UNL1       -0.0483
     24 C          -0.2851   -0.4667   -1.1848 C.ar    1  UNL1       -0.0348
     25 H          -1.6696    1.0110    1.6038 H       1  UNL1        0.0829
     26 H          -0.1532    1.3222    0.7251 H       1  UNL1        0.0829
     27 H          -0.3260    1.4135    4.7651 H       1  UNL1        0.0283
     28 H          -1.7554    0.7905    3.8775 H       1  UNL1        0.0283
     29 H           0.5312   -0.8034    5.1668 H       1  UNL1        0.0279
     30 H          -1.2361   -1.1047    5.2693 H       1  UNL1        0.0279
     31 H           0.2371   -2.5090    3.4879 H       1  UNL1        0.0444
     32 H          -1.3551   -1.8596    2.9897 H       1  UNL1        0.0444
     33 H          -0.5104   -3.4664    0.3414 H       1  UNL1        0.0637
     34 H          -2.1596   -3.8127   -1.4540 H       1  UNL1        0.0624
     35 H          -1.4044    0.1252   -2.9073 H       1  UNL1        0.0624
     36 H           0.2420    0.4729   -1.1095 H       1  UNL1        0.0637
@<TRIPOS>UNITY_ATOM_ATTR
1 1
charge 1
@<TRIPOS>BOND
     1     1     2    1
     2     1     3    1
     3     1     4    1
     4     1     5    1
     5     5     6    1
     6     5    25    1
     7     5    26    1
     8     6     7    1
     9     6    11    1
    10     6     8    1
    11     8     9    1
    12     8    27    1
    13     8    28    1
    14     9    10    1
    15     9    29    1
    16     9    30    1
    17    10    11    1
    18    10    31    1
    19    10    32    1
    20    12    11    1
    21    12    13    2
    22    12    14    2
    23    12    15    1
    24    15    24   ar
    25    15    16   ar
    26    16    17   ar
    27    16    33    1
    28    17    18   ar
    29    17    34    1
    30    18    19    1
    31    18    23   ar
    32    19    20    1
    33    19    21    1
    34    19    22    1
    35    23    24   ar
    36    23    35    1
    37    24    36    1
