@<TRIPOS>MOLECULE
ZINC000028208146
 53 54 0 0 0
SMALL
GASTEIGER

@<TRIPOS>ATOM
      1 C           0.8588   -0.8595   -0.9058 C.3     1  UNL1       -0.0613
      2 C          -0.0055    0.0163    0.0036 C.3     1  UNL1       -0.0305
      3 C          -1.4174   -0.5103    0.0140 C.ar    1  UNL1       -0.0475
      4 C          -2.3313   -0.0528   -0.9175 C.ar    1  UNL1       -0.0568
      5 C          -3.6261   -0.5334   -0.9105 C.ar    1  UNL1       -0.0402
      6 C          -4.0097   -1.4775    0.0329 C.ar    1  UNL1        0.0335
      7 N          -5.3205   -1.9668    0.0423 N.am    1  UNL1       -0.2827
      8 C          -5.9972   -2.1032   -1.1152 C.2     1  UNL1        0.2548
      9 O          -5.4399   -1.8935   -2.1719 O.2     1  UNL1       -0.2717
     10 C          -7.4464   -2.5164   -1.0967 C.3     1  UNL1        0.1655
     11 O          -7.9376   -2.5912   -2.4366 O.3     1  UNL1       -0.4813
     12 C          -9.2377   -2.9532   -2.5979 C.ar    1  UNL1        0.1395
     13 C         -10.0257   -3.2250   -1.4897 C.ar    1  UNL1       -0.0166
     14 C         -11.3474   -3.5925   -1.6561 C.ar    1  UNL1       -0.0318
     15 C         -11.8848   -3.6898   -2.9260 C.ar    1  UNL1        0.1071
     16 S         -13.5705   -4.1586   -3.1340 S.O2    1  UNL1        0.0609
     17 O         -13.6780   -4.6987   -4.4440 O.2     1  UNL1       -0.1528
     18 O         -13.9340   -4.8787   -1.9642 O.2     1  UNL1       -0.1528
     19 N         -14.4705   -2.7685   -3.1260 N.3     1  UNL1       -0.1771
     20 C         -14.7386   -2.0623   -4.3812 C.3     1  UNL1        0.0177
     21 C         -16.0948   -2.5037   -4.9351 C.3     1  UNL1       -0.0507
     22 C         -14.9985   -2.2450   -1.8638 C.3     1  UNL1        0.0177
     23 C         -14.0378   -1.1927   -1.3064 C.3     1  UNL1       -0.0507
     24 C         -11.1019   -3.4194   -4.0334 C.ar    1  UNL1       -0.0134
     25 C          -9.7809   -3.0459   -3.8724 C.ar    1  UNL1        0.0844
     26 CL         -8.7982   -2.7065   -5.2626 Cl      1  UNL1       -0.0797
     27 C          -3.0893   -1.9353    0.9667 C.ar    1  UNL1       -0.0402
     28 C          -1.7948   -1.4543    0.9514 C.ar    1  UNL1       -0.0568
     29 H           1.8800   -0.4786   -0.9133 H       1  UNL1        0.0233
     30 H           0.8558   -1.8839   -0.5333 H       1  UNL1        0.0233
     31 H           0.4562   -0.8400   -1.9185 H       1  UNL1        0.0233
     32 H           0.3971   -0.0032    1.0163 H       1  UNL1        0.0311
     33 H          -0.0025    1.0407   -0.3689 H       1  UNL1        0.0311
     34 H          -2.0324    0.6814   -1.6509 H       1  UNL1        0.0621
     35 H          -4.3396   -0.1752   -1.6379 H       1  UNL1        0.0636
     36 H          -5.7422   -2.2079    0.8819 H       1  UNL1        0.1549
     37 H          -7.5399   -3.4924   -0.6205 H       1  UNL1        0.0795
     38 H          -8.0264   -1.7822   -0.5375 H       1  UNL1        0.0795
     39 H          -9.6065   -3.1500   -0.4972 H       1  UNL1        0.0655
     40 H         -11.9612   -3.8042   -0.7930 H       1  UNL1        0.0638
     41 H         -14.7533   -0.9880   -4.1977 H       1  UNL1        0.0441
     42 H         -13.9572   -2.2967   -5.1041 H       1  UNL1        0.0441
     43 H         -16.2943   -1.9782   -5.8690 H       1  UNL1        0.0243
     44 H         -16.0801   -3.5780   -5.1186 H       1  UNL1        0.0243
     45 H         -16.8762   -2.2692   -4.2122 H       1  UNL1        0.0243
     46 H         -15.9736   -1.7904   -2.0385 H       1  UNL1        0.0441
     47 H         -15.1006   -3.0597   -1.1469 H       1  UNL1        0.0441
     48 H         -14.4306   -0.8032   -0.3672 H       1  UNL1        0.0243
     49 H         -13.0626   -1.6473   -1.1316 H       1  UNL1        0.0243
     50 H         -13.9356   -0.3780   -2.0232 H       1  UNL1        0.0243
     51 H         -11.5240   -3.4962   -5.0245 H       1  UNL1        0.0653
     52 H          -3.3846   -2.6695    1.7017 H       1  UNL1        0.0636
     53 H          -1.0786   -1.8099    1.6774 H       1  UNL1        0.0621
@<TRIPOS>BOND
     1     1     2    1
     2     1    29    1
     3     1    30    1
     4     1    31    1
     5     2     3    1
     6     2    32    1
     7     2    33    1
     8     3    28   ar
     9     3     4   ar
    10     4     5   ar
    11     4    34    1
    12     5     6   ar
    13     5    35    1
    14     6     7    1
    15     6    27   ar
    16     7     8   am
    17     7    36    1
    18     8     9    2
    19     8    10    1
    20    10    11    1
    21    10    37    1
    22    10    38    1
    23    11    12    1
    24    12    25   ar
    25    12    13   ar
    26    13    14   ar
    27    13    39    1
    28    14    15   ar
    29    14    40    1
    30    15    16    1
    31    15    24   ar
    32    16    17    2
    33    16    18    2
    34    16    19    1
    35    19    20    1
    36    19    22    1
    37    20    21    1
    38    20    41    1
    39    20    42    1
    40    21    43    1
    41    21    44    1
    42    21    45    1
    43    22    23    1
    44    22    46    1
    45    22    47    1
    46    23    48    1
    47    23    49    1
    48    23    50    1
    49    24    25   ar
    50    24    51    1
    51    25    26    1
    52    27    28   ar
    53    27    52    1
    54    28    53    1
