@<TRIPOS>MOLECULE
ZINC000028208295
 45 45 0 0 0
SMALL
GASTEIGER

@<TRIPOS>ATOM
      1 C          -0.0187    1.5258    0.0104 C.3     1  UNL1       -0.0636
      2 C           0.0021   -0.0041    0.0020 C.3     1  UNL1       -0.0376
      3 C           0.7182   -0.4975   -1.2568 C.3     1  UNL1        0.0200
      4 H           0.2444   -0.0644   -2.1377 H       1  UNL1        0.0495
      5 C           0.6303   -2.0233   -1.3286 C.3     1  UNL1       -0.0466
      6 N           2.1249   -0.0911   -1.2094 N.am    1  UNL1       -0.3127
      7 C           2.8241    0.0515   -2.3527 C.2     1  UNL1        0.2135
      8 O           2.2887   -0.1566   -3.4209 O.2     1  UNL1       -0.2758
      9 C           4.2711    0.4696   -2.3039 C.3     1  UNL1        0.0279
     10 C           4.8252    0.5563   -3.7275 C.3     1  UNL1       -0.0194
     11 C           6.2722    0.9744   -3.6787 C.ar    1  UNL1       -0.0468
     12 C           6.6055    2.3156   -3.7091 C.ar    1  UNL1       -0.0567
     13 C           7.9329    2.6991   -3.6643 C.ar    1  UNL1       -0.0351
     14 C           8.9269    1.7414   -3.5887 C.ar    1  UNL1        0.1055
     15 S          10.6187    2.2302   -3.5322 S.O2    1  UNL1        0.0604
     16 O          11.3723    1.1231   -4.0072 O.2     1  UNL1       -0.1529
     17 O          10.6827    3.5229   -4.1188 O.2     1  UNL1       -0.1529
     18 N          11.0212    2.4201   -1.9371 N.3     1  UNL1       -0.1827
     19 C          11.5492    1.2859   -1.1749 C.3     1  UNL1        0.0086
     20 C          10.8491    3.7222   -1.2883 C.3     1  UNL1        0.0086
     21 C           8.5935    0.4002   -3.5569 C.ar    1  UNL1       -0.0351
     22 C           7.2659    0.0169   -3.5978 C.ar    1  UNL1       -0.0567
     23 H           1.0039    1.9031    0.0027 H       1  UNL1        0.0230
     24 H          -0.5459    1.8868   -0.8726 H       1  UNL1        0.0230
     25 H          -0.5289    1.8773    0.9072 H       1  UNL1        0.0230
     26 H           0.5293   -0.3651    0.8851 H       1  UNL1        0.0280
     27 H          -1.0205   -0.3814    0.0098 H       1  UNL1        0.0280
     28 H           1.1041   -2.4564   -0.4477 H       1  UNL1        0.0247
     29 H          -0.4163   -2.3257   -1.3639 H       1  UNL1        0.0247
     30 H           1.1405   -2.3748   -2.2254 H       1  UNL1        0.0247
     31 H           2.5531    0.0754   -0.3551 H       1  UNL1        0.1490
     32 H           4.3517    1.4443   -1.8227 H       1  UNL1        0.0361
     33 H           4.8424   -0.2644   -1.7357 H       1  UNL1        0.0361
     34 H           4.7446   -0.4184   -4.2087 H       1  UNL1        0.0318
     35 H           4.2539    1.2904   -4.2956 H       1  UNL1        0.0318
     36 H           5.8290    3.0638   -3.7682 H       1  UNL1        0.0621
     37 H           8.1933    3.7469   -3.6888 H       1  UNL1        0.0637
     38 H          12.6359    1.2665   -1.2581 H       1  UNL1        0.0408
     39 H          11.2669    1.3892   -0.1272 H       1  UNL1        0.0408
     40 H          11.1378    0.3580   -1.5722 H       1  UNL1        0.0408
     41 H          10.4484    4.4365   -2.0075 H       1  UNL1        0.0408
     42 H          10.1578    3.6226   -0.4514 H       1  UNL1        0.0408
     43 H          11.8131    4.0764   -0.9230 H       1  UNL1        0.0408
     44 H           9.3700   -0.3480   -3.4974 H       1  UNL1        0.0637
     45 H           7.0055   -1.0310   -3.5729 H       1  UNL1        0.0621
@<TRIPOS>BOND
     1     1     2    1
     2     1    23    1
     3     1    24    1
     4     1    25    1
     5     2     3    1
     6     2    26    1
     7     2    27    1
     8     3     4    1
     9     3     5    1
    10     3     6    1
    11     5    28    1
    12     5    29    1
    13     5    30    1
    14     6     7   am
    15     6    31    1
    16     7     8    2
    17     7     9    1
    18     9    10    1
    19     9    32    1
    20     9    33    1
    21    10    11    1
    22    10    34    1
    23    10    35    1
    24    11    22   ar
    25    11    12   ar
    26    12    13   ar
    27    12    36    1
    28    13    14   ar
    29    13    37    1
    30    14    15    1
    31    14    21   ar
    32    15    16    2
    33    15    17    2
    34    15    18    1
    35    18    19    1
    36    18    20    1
    37    19    38    1
    38    19    39    1
    39    19    40    1
    40    20    41    1
    41    20    42    1
    42    20    43    1
    43    21    22   ar
    44    21    44    1
    45    22    45    1
