@<TRIPOS>MOLECULE
ZINC000408600757
 47 48 0 0 0
SMALL
GASTEIGER

@<TRIPOS>ATOM
      1 C           0.0106    1.5808    0.0419 C.3     1  UNL1       -0.0507
      2 C           0.0368    0.0511    0.0439 C.3     1  UNL1        0.0177
      3 N           0.7223   -0.4272   -1.1592 N.3     1  UNL1       -0.1771
      4 C           2.1827   -0.5421   -1.1734 C.3     1  UNL1        0.0177
      5 C           2.5939   -1.8914   -0.5807 C.3     1  UNL1       -0.0507
      6 S          -0.1536   -0.8379   -2.5033 S.O2    1  UNL1        0.0608
      7 O           0.6526   -1.7413   -3.2470 O.2     1  UNL1       -0.1528
      8 O          -1.4612   -1.1571   -2.0479 O.2     1  UNL1       -0.1528
      9 C          -0.3104    0.6151   -3.4877 C.ar    1  UNL1        0.1057
     10 C          -1.3820    1.4672   -3.2946 C.ar    1  UNL1       -0.0319
     11 C          -1.5073    2.6069   -4.0651 C.ar    1  UNL1       -0.0181
     12 C          -0.5564    2.8965   -5.0329 C.ar    1  UNL1        0.1213
     13 O          -0.6771    4.0173   -5.7919 O.3     1  UNL1       -0.4828
     14 C           0.3389    4.2517   -6.7689 C.3     1  UNL1        0.1655
     15 C           0.0397    5.5306   -7.5079 C.2     1  UNL1        0.2549
     16 O          -0.9466    6.1776   -7.2257 O.2     1  UNL1       -0.2717
     17 N           0.8681    5.9553   -8.4825 N.am    1  UNL1       -0.2815
     18 C           0.5421    7.0915   -9.2323 C.ar    1  UNL1        0.0520
     19 C          -0.1236    8.1524   -8.6339 C.ar    1  UNL1       -0.0390
     20 C          -0.4436    9.2727   -9.3764 C.ar    1  UNL1       -0.0599
     21 C          -0.1017    9.3385  -10.7143 C.ar    1  UNL1       -0.0603
     22 C           0.5613    8.2835  -11.3145 C.ar    1  UNL1       -0.0416
     23 C           0.8894    7.1624  -10.5763 C.ar    1  UNL1        0.0621
     24 CL          1.7221    5.8386  -11.3299 Cl      1  UNL1       -0.0816
     25 C           0.5181    2.0401   -5.2244 C.ar    1  UNL1       -0.0181
     26 C           0.6414    0.9041   -4.4480 C.ar    1  UNL1       -0.0319
     27 H           1.0318    1.9617    0.0300 H       1  UNL1        0.0243
     28 H          -0.5193    1.9340   -0.8428 H       1  UNL1        0.0243
     29 H          -0.4995    1.9367    0.9371 H       1  UNL1        0.0243
     30 H           0.5667   -0.3021    0.9286 H       1  UNL1        0.0441
     31 H          -0.9844   -0.3298    0.0559 H       1  UNL1        0.0441
     32 H           2.5429   -0.4711   -2.1997 H       1  UNL1        0.0441
     33 H           2.6163    0.2628   -0.5798 H       1  UNL1        0.0441
     34 H           3.6805   -1.9768   -0.5912 H       1  UNL1        0.0243
     35 H           2.2338   -1.9623    0.4457 H       1  UNL1        0.0243
     36 H           2.1604   -2.6962   -1.1743 H       1  UNL1        0.0243
     37 H          -2.1220    1.2413   -2.5410 H       1  UNL1        0.0638
     38 H          -2.3449    3.2719   -3.9144 H       1  UNL1        0.0655
     39 H           1.3064    4.3360   -6.2740 H       1  UNL1        0.0795
     40 H           0.3629    3.4214   -7.4747 H       1  UNL1        0.0795
     41 H           1.6902    5.4737   -8.6644 H       1  UNL1        0.1550
     42 H          -0.3916    8.1020   -7.5888 H       1  UNL1        0.0636
     43 H          -0.9619   10.0981   -8.9110 H       1  UNL1        0.0618
     44 H          -0.3532   10.2156  -11.2921 H       1  UNL1        0.0618
     45 H           0.8267    8.3379  -12.3600 H       1  UNL1        0.0633
     46 H           1.2595    2.2631   -5.9774 H       1  UNL1        0.0655
     47 H           1.4779    0.2373   -4.5964 H       1  UNL1        0.0638
@<TRIPOS>BOND
     1     1     2    1
     2     1    27    1
     3     1    28    1
     4     1    29    1
     5     2     3    1
     6     2    30    1
     7     2    31    1
     8     3     4    1
     9     6     3    1
    10     4     5    1
    11     4    32    1
    12     4    33    1
    13     5    34    1
    14     5    35    1
    15     5    36    1
    16     6     7    2
    17     6     8    2
    18     6     9    1
    19     9    26   ar
    20     9    10   ar
    21    10    11   ar
    22    10    37    1
    23    11    12   ar
    24    11    38    1
    25    12    13    1
    26    12    25   ar
    27    13    14    1
    28    14    15    1
    29    14    39    1
    30    14    40    1
    31    15    16    2
    32    15    17   am
    33    17    18    1
    34    17    41    1
    35    18    23   ar
    36    18    19   ar
    37    19    20   ar
    38    19    42    1
    39    20    21   ar
    40    20    43    1
    41    21    22   ar
    42    21    44    1
    43    22    23   ar
    44    22    45    1
    45    23    24    1
    46    25    26   ar
    47    25    46    1
    48    26    47    1
