@<TRIPOS>MOLECULE
ZINC000012982509
 37 39 0 0 0
SMALL
GASTEIGER

@<TRIPOS>ATOM
      1 C           0.0872    1.5050   -0.0936 C.3     1  UNL1       -0.0437
      2 C           0.0602   -0.0240   -0.0447 C.3     1  UNL1        0.0547
      3 H           0.5123   -0.4302   -0.9495 H       1  UNL1        0.0527
      4 C          -1.3791   -0.5114    0.0769 C.ar    1  UNL1       -0.0187
      5 C          -1.7616   -1.4246    0.9895 C.ar    1  UNL1       -0.0042
      6 C          -0.8476   -2.0748    2.0063 C.3     1  UNL1       -0.0066
      7 C           0.6068   -1.8926    1.5609 C.3     1  UNL1        0.0256
      8 N           0.7967   -0.4974    1.1357 N.3     1  UNL1       -0.1691
      9 S           1.8119    0.5135    1.9664 S.O2    1  UNL1        0.0614
     10 O           1.2585    1.8176    1.8555 O.2     1  UNL1       -0.1528
     11 O           2.0736   -0.1163    3.2130 O.2     1  UNL1       -0.1528
     12 C           3.3428    0.5468    1.0947 C.ar    1  UNL1        0.1055
     13 C           4.3316   -0.3700    1.3991 C.ar    1  UNL1       -0.0348
     14 C           5.5326   -0.3438    0.7152 C.ar    1  UNL1       -0.0483
     15 C           5.7447    0.5989   -0.2734 C.ar    1  UNL1        0.0549
     16 C           7.0543    0.6277   -1.0186 C.3     1  UNL1        0.4174
     17 F           6.9667   -0.1943   -2.1472 F       1  UNL1       -0.1659
     18 F           7.3351    1.9389   -1.4173 F       1  UNL1       -0.1659
     19 F           8.0766    0.1652   -0.1830 F       1  UNL1       -0.1659
     20 C           4.7554    1.5148   -0.5787 C.ar    1  UNL1       -0.0483
     21 C           3.5529    1.4862    0.1025 C.ar    1  UNL1       -0.0348
     22 S          -3.4828   -1.7478    0.8254 S.2     1  UNL1       -0.1012
     23 C          -3.6075   -0.5983   -0.4977 C.ar    1  UNL1       -0.0237
     24 C          -2.4148   -0.0622   -0.7363 C.ar    1  UNL1       -0.0497
     25 H           1.1209    1.8494   -0.1234 H       1  UNL1        0.0248
     26 H          -0.4363    1.8493   -0.9855 H       1  UNL1        0.0248
     27 H          -0.4039    1.9056    0.7932 H       1  UNL1        0.0248
     28 H          -0.9923   -1.6055    2.9794 H       1  UNL1        0.0331
     29 H          -1.0771   -3.1381    2.0754 H       1  UNL1        0.0331
     30 H           1.2750   -2.1158    2.3927 H       1  UNL1        0.0447
     31 H           0.8206   -2.5608    0.7268 H       1  UNL1        0.0447
     32 H           4.1659   -1.1065    2.1714 H       1  UNL1        0.0637
     33 H           6.3054   -1.0596    0.9535 H       1  UNL1        0.0624
     34 H           4.9210    2.2511   -1.3513 H       1  UNL1        0.0624
     35 H           2.7800    2.2018   -0.1360 H       1  UNL1        0.0637
     36 H          -4.5144   -0.3635   -1.0352 H       1  UNL1        0.0693
     37 H          -2.2598    0.6744   -1.5107 H       1  UNL1        0.0626
@<TRIPOS>BOND
     1     1     2    1
     2     1    25    1
     3     1    26    1
     4     1    27    1
     5     2     3    1
     6     2     8    1
     7     2     4    1
     8     4    24   ar
     9     4     5   ar
    10     5     6    1
    11     5    22   ar
    12     6     7    1
    13     6    28    1
    14     6    29    1
    15     7     8    1
    16     7    30    1
    17     7    31    1
    18     9     8    1
    19     9    10    2
    20     9    11    2
    21     9    12    1
    22    12    21   ar
    23    12    13   ar
    24    13    14   ar
    25    13    32    1
    26    14    15   ar
    27    14    33    1
    28    15    16    1
    29    15    20   ar
    30    16    17    1
    31    16    18    1
    32    16    19    1
    33    20    21   ar
    34    20    34    1
    35    21    35    1
    36    22    23   ar
    37    23    24   ar
    38    23    36    1
    39    24    37    1
