@<TRIPOS>MOLECULE
ZINC000136675139
 29 30 0 0 0
SMALL
GASTEIGER

@<TRIPOS>ATOM
      1 C          -0.0184    1.5028    0.0103 C.3     1  UNL1       -0.0397
      2 C           0.0021   -0.0041    0.0020 C.ar    1  UNL1       -0.0503
      3 C           0.0057   -0.6887   -1.1989 C.ar    1  UNL1       -0.0570
      4 C           0.0245   -2.0709   -1.2065 C.ar    1  UNL1       -0.0346
      5 C           0.0400   -2.7685   -0.0132 C.ar    1  UNL1        0.1110
      6 S           0.0633   -4.5303   -0.0229 S.O2    1  UNL1        0.0837
      7 O          -0.4690   -4.9455    1.2275 O.2     1  UNL1       -0.1476
      8 O          -0.4824   -4.9319   -1.2719 O.2     1  UNL1       -0.1476
      9 N           1.6514   -4.9995   -0.0340 N.ar    1  UNL1       -0.2255
     10 C           2.4090   -5.2128   -1.1473 C.ar    1  UNL1        0.0294
     11 C           3.6445   -5.5816   -0.7523 C.ar    1  UNL1       -0.0307
     12 C           3.6499   -5.5965    0.6566 C.ar    1  UNL1        0.0741
     13 C           4.8182   -5.9501    1.5404 C.3     1  UNL1        0.4188
     14 F           5.9241   -6.2700    0.7456 F       1  UNL1       -0.1658
     15 F           5.1315   -4.8589    2.3579 F       1  UNL1       -0.1658
     16 F           4.4835   -7.0496    2.3381 F       1  UNL1       -0.1658
     17 C           2.4192   -5.2305    1.0688 C.ar    1  UNL1        0.0404
     18 C           0.0378   -2.0839    1.1877 C.ar    1  UNL1       -0.0346
     19 C           0.0229   -0.7016    1.1953 C.ar    1  UNL1       -0.0570
     20 H           1.0042    1.8801    0.0026 H       1  UNL1        0.0278
     21 H          -0.5455    1.8639   -0.8728 H       1  UNL1        0.0278
     22 H          -0.5286    1.8543    0.9071 H       1  UNL1        0.0278
     23 H          -0.0064   -0.1436   -2.1312 H       1  UNL1        0.0621
     24 H           0.0266   -2.6057   -2.1448 H       1  UNL1        0.0637
     25 H           2.0768   -5.1053   -2.1693 H       1  UNL1        0.0828
     26 H           4.4768   -5.8215   -1.3973 H       1  UNL1        0.0639
     27 H           2.0954   -5.1429    2.0954 H       1  UNL1        0.0833
     28 H           0.0503   -2.6289    2.1200 H       1  UNL1        0.0637
     29 H           0.0211   -0.1667    2.1335 H       1  UNL1        0.0621
@<TRIPOS>BOND
     1     1     2    1
     2     1    20    1
     3     1    21    1
     4     1    22    1
     5     2    19   ar
     6     2     3   ar
     7     3     4   ar
     8     3    23    1
     9     4     5   ar
    10     4    24    1
    11     5     6    1
    12     5    18   ar
    13     6     7    2
    14     6     8    2
    15     6     9    1
    16     9    17   ar
    17     9    10   ar
    18    10    11   ar
    19    10    25    1
    20    11    12   ar
    21    11    26    1
    22    12    13    1
    23    12    17   ar
    24    13    14    1
    25    13    15    1
    26    13    16    1
    27    17    27    1
    28    18    19   ar
    29    18    28    1
    30    19    29    1
