@<TRIPOS>MOLECULE
ZINC000012933239
 44 45 0 0 0
SMALL
GASTEIGER

@<TRIPOS>ATOM
      1 C          -0.0015    1.4877   -0.0008 C.3     1  UNL1       -0.0507
      2 C           0.0210   -0.0421    0.0022 C.3     1  UNL1        0.0177
      3 N           0.7257   -0.5178    1.1953 N.3     1  UNL1       -0.1771
      4 C           0.0044   -0.6658    2.4618 C.3     1  UNL1        0.0177
      5 C          -0.6814   -2.0329    2.5013 C.3     1  UNL1       -0.0507
      6 S           2.3376   -0.8881    1.1122 S.O2    1  UNL1        0.0609
      7 O           2.5953   -1.7985    2.1724 O.2     1  UNL1       -0.1528
      8 O           2.6117   -1.1842   -0.2503 O.2     1  UNL1       -0.1528
      9 C           3.2309    0.5826    1.4912 C.ar    1  UNL1        0.1075
     10 C           3.5833    1.4554    0.4788 C.ar    1  UNL1       -0.0318
     11 C           4.2844    2.6114    0.7701 C.ar    1  UNL1       -0.0163
     12 C           4.6352    2.8977    2.0789 C.ar    1  UNL1        0.1413
     13 O           5.3242    4.0341    2.3668 O.3     1  UNL1       -0.4933
     14 C           5.6539    4.8885    1.2698 C.3     1  UNL1        0.0789
     15 C           4.2800    2.0185    3.1001 C.ar    1  UNL1        0.0778
     16 N           4.6319    2.3028    4.4254 N.am    1  UNL1       -0.2760
     17 C           3.8045    1.9568    5.4314 C.2     1  UNL1        0.2837
     18 O           2.7905    1.3258    5.1959 O.2     1  UNL1       -0.2665
     19 C           4.1253    2.3402    6.8084 C.ar    1  UNL1        0.1915
     20 C           3.3802    2.0508    7.9165 C.ar    1  UNL1       -0.0097
     21 C           4.0556    2.6054    9.0135 C.ar    1  UNL1       -0.0038
     22 C           5.1715    3.2030    8.5338 C.ar    1  UNL1        0.1949
     23 CL          6.3579    4.0414    9.4841 Cl      1  UNL1       -0.0431
     24 O           5.2117    3.0362    7.2052 O.2     1  UNL1       -0.4391
     25 C           3.5726    0.8636    2.8009 C.ar    1  UNL1       -0.0105
     26 H           1.0207    1.8661   -0.0075 H       1  UNL1        0.0243
     27 H          -0.5258    1.8417   -0.8884 H       1  UNL1        0.0243
     28 H          -0.5154    1.8453    0.8915 H       1  UNL1        0.0243
     29 H          -1.0012   -0.4205    0.0090 H       1  UNL1        0.0441
     30 H           0.5349   -0.3997   -0.8901 H       1  UNL1        0.0441
     31 H           0.7071   -0.5878    3.2914 H       1  UNL1        0.0441
     32 H          -0.7463    0.1199    2.5464 H       1  UNL1        0.0441
     33 H          -1.3841   -2.1109    1.6717 H       1  UNL1        0.0243
     34 H           0.0693   -2.8186    2.4167 H       1  UNL1        0.0243
     35 H          -1.2181   -2.1431    3.4436 H       1  UNL1        0.0243
     36 H           3.3106    1.2339   -0.5424 H       1  UNL1        0.0638
     37 H           4.5588    3.2908   -0.0234 H       1  UNL1        0.0655
     38 H           6.2013    5.7566    1.6371 H       1  UNL1        0.0660
     39 H           6.2732    4.3430    0.5578 H       1  UNL1        0.0660
     40 H           4.7387    5.2176    0.7778 H       1  UNL1        0.0660
     41 H           5.4713    2.7487    4.6194 H       1  UNL1        0.1553
     42 H           2.4507    1.5015    7.9427 H       1  UNL1        0.0657
     43 H           3.7440    2.5636   10.0467 H       1  UNL1        0.0665
     44 H           3.2957    0.1801    3.5899 H       1  UNL1        0.0657
@<TRIPOS>BOND
     1     1     2    1
     2     1    26    1
     3     1    27    1
     4     1    28    1
     5     2     3    1
     6     2    29    1
     7     2    30    1
     8     3     4    1
     9     6     3    1
    10     4     5    1
    11     4    31    1
    12     4    32    1
    13     5    33    1
    14     5    34    1
    15     5    35    1
    16     6     7    2
    17     6     8    2
    18     6     9    1
    19     9    25   ar
    20     9    10   ar
    21    10    11   ar
    22    10    36    1
    23    11    12   ar
    24    11    37    1
    25    12    13    1
    26    12    15   ar
    27    13    14    1
    28    14    38    1
    29    14    39    1
    30    14    40    1
    31    15    16    1
    32    15    25   ar
    33    16    17   am
    34    16    41    1
    35    17    18    2
    36    17    19    1
    37    19    24   ar
    38    19    20   ar
    39    20    21   ar
    40    20    42    1
    41    21    22   ar
    42    21    43    1
    43    22    23    1
    44    22    24   ar
    45    25    44    1
