@<TRIPOS>MOLECULE
ZINC000048325506
 52 53 0 0 0
SMALL
GASTEIGER

@<TRIPOS>ATOM
      1 C          -0.0187    1.5258    0.0104 C.3     1  UNL1       -0.0218
      2 C           0.0021   -0.0041    0.0020 C.3     1  UNL1       -0.0264
      3 C           0.7182   -0.4975   -1.2568 C.3     1  UNL1       -0.0218
      4 N           0.7126   -0.4907    1.1921 N.4     1  UNL1        0.2414
      5 H           1.6592   -0.1415    1.1850 H       1  UNL1        0.2038
      6 C           0.0250   -0.0169    2.4007 C.3     1  UNL1       -0.0424
      7 C           0.7325   -1.9595    1.1840 C.3     1  UNL1        0.0461
      8 C           1.5652   -2.4570    2.3374 C.2     1  UNL1        0.2608
      9 O           2.0904   -1.6658    3.0918 O.2     1  UNL1       -0.2697
     10 N           1.7264   -3.7811    2.5305 N.am    1  UNL1       -0.2946
     11 C           1.1009   -4.7512    1.6208 C.3     1  UNL1        0.0293
     12 C           2.1906   -5.6788    1.0690 C.3     1  UNL1        0.0363
     13 N           2.9953   -6.1783    2.1927 N.3     1  UNL1       -0.1736
     14 S           3.1942   -7.8052    2.4294 S.O2    1  UNL1        0.0609
     15 O           3.5042   -7.9756    3.8056 O.2     1  UNL1       -0.1528
     16 O           2.0918   -8.4404    1.7966 O.2     1  UNL1       -0.1528
     17 C           4.6306   -8.2910    1.5319 C.ar    1  UNL1        0.1055
     18 C           4.5183   -8.6989    0.2159 C.ar    1  UNL1       -0.0348
     19 C           5.6452   -9.0800   -0.4881 C.ar    1  UNL1       -0.0483
     20 C           6.8845   -9.0529    0.1237 C.ar    1  UNL1        0.0549
     21 C           8.1130   -9.4689   -0.6437 C.3     1  UNL1        0.4174
     22 F           8.6640   -8.3528   -1.2824 F       1  UNL1       -0.1659
     23 F           9.0526  -10.0121    0.2391 F       1  UNL1       -0.1659
     24 F           7.7628  -10.4279   -1.6001 F       1  UNL1       -0.1659
     25 C           6.9970   -8.6437    1.4393 C.ar    1  UNL1       -0.0483
     26 C           5.8706   -8.2589    2.1422 C.ar    1  UNL1       -0.0348
     27 C           3.6208   -5.2082    3.1024 C.3     1  UNL1        0.0363
     28 C           2.5357   -4.2805    3.6509 C.3     1  UNL1        0.0293
     29 H           1.0039    1.9031    0.0027 H       1  UNL1        0.0284
     30 H          -0.5459    1.8868   -0.8726 H       1  UNL1        0.0284
     31 H          -0.5289    1.8773    0.9072 H       1  UNL1        0.0284
     32 H          -1.0205   -0.3814    0.0098 H       1  UNL1        0.0846
     33 H           1.7408   -0.1202   -1.2645 H       1  UNL1        0.0284
     34 H           0.7330   -1.5874   -1.2628 H       1  UNL1        0.0284
     35 H           0.1910   -0.1364   -2.1398 H       1  UNL1        0.0284
     36 H          -0.9976   -0.3942    2.4085 H       1  UNL1        0.0778
     37 H           0.5522   -0.3780    3.2838 H       1  UNL1        0.0778
     38 H           0.0102    1.0729    2.4067 H       1  UNL1        0.0778
     39 H          -0.2853   -2.3372    1.2813 H       1  UNL1        0.0913
     40 H           1.1628   -2.3119    0.2466 H       1  UNL1        0.0913
     41 H           0.3614   -5.3387    2.1648 H       1  UNL1        0.0478
     42 H           0.6190   -4.2231    0.7980 H       1  UNL1        0.0478
     43 H           1.7281   -6.5176    0.5489 H       1  UNL1        0.0459
     44 H           2.8284   -5.1247    0.3802 H       1  UNL1        0.0459
     45 H           3.5501   -8.7201   -0.2621 H       1  UNL1        0.0637
     46 H           5.5574   -9.3993   -1.5161 H       1  UNL1        0.0624
     47 H           7.9653   -8.6222    1.9172 H       1  UNL1        0.0624
     48 H           5.9585   -7.9393    3.1700 H       1  UNL1        0.0637
     49 H           4.1027   -5.7362    3.9252 H       1  UNL1        0.0459
     50 H           4.3603   -4.6206    2.5584 H       1  UNL1        0.0459
     51 H           2.9995   -3.4422    4.1708 H       1  UNL1        0.0478
     52 H           1.8962   -4.8327    4.3396 H       1  UNL1        0.0478
@<TRIPOS>UNITY_ATOM_ATTR
4 1
charge 1
@<TRIPOS>BOND
     1     1     2    1
     2     1    29    1
     3     1    30    1
     4     1    31    1
     5     2     3    1
     6     2     4    1
     7     2    32    1
     8     3    33    1
     9     3    34    1
    10     3    35    1
    11     4     5    1
    12     4     6    1
    13     4     7    1
    14     6    36    1
    15     6    37    1
    16     6    38    1
    17     7     8    1
    18     7    39    1
    19     7    40    1
    20     8     9    2
    21     8    10   am
    22    10    28    1
    23    10    11    1
    24    11    12    1
    25    11    41    1
    26    11    42    1
    27    12    13    1
    28    12    43    1
    29    12    44    1
    30    14    13    1
    31    13    27    1
    32    14    15    2
    33    14    16    2
    34    14    17    1
    35    17    26   ar
    36    17    18   ar
    37    18    19   ar
    38    18    45    1
    39    19    20   ar
    40    19    46    1
    41    20    21    1
    42    20    25   ar
    43    21    22    1
    44    21    23    1
    45    21    24    1
    46    25    26   ar
    47    25    47    1
    48    26    48    1
    49    27    28    1
    50    27    49    1
    51    27    50    1
    52    28    51    1
    53    28    52    1
