@<TRIPOS>MOLECULE
ZINC000080819421
 39 40 0 0 0
SMALL
GASTEIGER

@<TRIPOS>ATOM
      1 C          -0.5794    2.6466   -1.2101 C.3     1  UNL1       -0.0415
      2 C          -0.3019    1.1487   -1.0680 C.3     1  UNL1        0.0457
      3 O          -1.5298    0.4571   -0.8314 O.3     1  UNL1       -0.3705
      4 C          -1.3814   -0.9565   -0.6830 C.3     1  UNL1        0.1039
      5 H          -0.5292   -1.2961   -1.2716 H       1  UNL1        0.0664
      6 C          -1.1493   -1.2928    0.7914 C.3     1  UNL1       -0.0325
      7 C          -2.6317   -1.6461   -1.1648 C.ar    1  UNL1        0.1070
      8 N          -2.6538   -2.6931   -1.9186 N.ar    1  UNL1       -0.2447
      9 C          -3.8368   -3.1713   -2.2480 C.ar    1  UNL1        0.0661
     10 C          -4.0102   -4.3873   -3.1211 C.3     1  UNL1        0.0574
     11 N          -3.9609   -3.9881   -4.5298 N.am    1  UNL1       -0.2935
     12 C          -2.6796   -3.9636   -5.2398 C.3     1  UNL1        0.0039
     13 C          -5.0942   -3.6433   -5.1726 C.2     1  UNL1        0.2665
     14 O          -6.1410   -3.5672   -4.5602 O.2     1  UNL1       -0.2683
     15 C          -5.0638   -3.3571   -6.6259 C.ar    1  UNL1        0.1435
     16 C          -6.2021   -2.8700   -7.2663 C.ar    1  UNL1        0.0580
     17 N          -6.1701   -2.6162   -8.5625 N.ar    1  UNL1       -0.2595
     18 C          -5.0616   -2.8237   -9.2505 C.ar    1  UNL1        0.0457
     19 C          -3.9268   -3.3090   -8.6159 C.ar    1  UNL1        0.0465
     20 N          -3.9484   -3.5590   -7.3223 N.ar    1  UNL1       -0.2473
     21 C          -4.8700   -2.4899   -1.7440 C.ar    1  UNL1        0.0003
     22 S          -4.2261   -1.1590   -0.7856 S.2     1  UNL1       -0.0777
     23 H           0.3572    3.1741   -1.3906 H       1  UNL1        0.0252
     24 H          -1.2571    2.8126   -2.0475 H       1  UNL1        0.0252
     25 H          -1.0361    3.0201   -0.2936 H       1  UNL1        0.0252
     26 H           0.1548    0.7752   -1.9845 H       1  UNL1        0.0557
     27 H           0.3758    0.9826   -0.2306 H       1  UNL1        0.0557
     28 H          -1.0361   -2.3710    0.9047 H       1  UNL1        0.0258
     29 H          -0.2450   -0.7940    1.1399 H       1  UNL1        0.0258
     30 H          -2.0015   -0.9531    1.3801 H       1  UNL1        0.0258
     31 H          -3.2098   -5.0985   -2.9168 H       1  UNL1        0.0529
     32 H          -4.9727   -4.8527   -2.9089 H       1  UNL1        0.0529
     33 H          -2.5435   -4.9027   -5.7762 H       1  UNL1        0.0429
     34 H          -2.6729   -3.1358   -5.9489 H       1  UNL1        0.0429
     35 H          -1.8692   -3.8342   -4.5225 H       1  UNL1        0.0429
     36 H          -7.1085   -2.7007   -6.7041 H       1  UNL1        0.0853
     37 H          -5.0385   -2.6153  -10.3100 H       1  UNL1        0.0845
     38 H          -3.0229   -3.4774   -9.1825 H       1  UNL1        0.0845
     39 H          -5.9151   -2.7172   -1.8944 H       1  UNL1        0.0712
@<TRIPOS>BOND
     1     1     2    1
     2     1    23    1
     3     1    24    1
     4     1    25    1
     5     2     3    1
     6     2    26    1
     7     2    27    1
     8     3     4    1
     9     4     5    1
    10     4     6    1
    11     4     7    1
    12     6    28    1
    13     6    29    1
    14     6    30    1
    15     7    22   ar
    16     7     8   ar
    17     8     9   ar
    18     9    10    1
    19     9    21   ar
    20    10    11    1
    21    10    31    1
    22    10    32    1
    23    11    12    1
    24    11    13   am
    25    12    33    1
    26    12    34    1
    27    12    35    1
    28    13    14    2
    29    13    15    1
    30    15    20   ar
    31    15    16   ar
    32    16    17   ar
    33    16    36    1
    34    17    18   ar
    35    18    19   ar
    36    18    37    1
    37    19    20   ar
    38    19    38    1
    39    21    22   ar
    40    21    39    1
