@<TRIPOS>MOLECULE
ZINC000031625402
 39 40 0 0 0
SMALL
GASTEIGER

@<TRIPOS>ATOM
      1 N          -0.0162    1.3436    0.0094 N.am    1  UNL1       -0.3291
      2 C           0.0021   -0.0041    0.0020 C.2     1  UNL1        0.2151
      3 O           1.0605   -0.5961   -0.0113 O.2     1  UNL1       -0.2757
      4 C          -1.2926   -0.7753    0.0102 C.3     1  UNL1        0.0511
      5 H          -1.8596   -0.5248    0.9069 H       1  UNL1        0.0409
      6 C          -0.9933   -2.2760   -0.0023 C.3     1  UNL1       -0.0391
      7 C          -2.3069   -3.0603    0.0392 C.3     1  UNL1       -0.0364
      8 C          -3.1380   -2.7226   -1.2026 C.3     1  UNL1        0.0148
      9 N          -3.3075   -1.2650   -1.2762 N.am    1  UNL1       -0.2993
     10 C          -4.5360   -0.7211   -1.3824 C.2     1  UNL1        0.2355
     11 O          -4.6627    0.4836   -1.4423 O.2     1  UNL1       -0.2736
     12 C          -5.7523   -1.6097   -1.4266 C.3     1  UNL1        0.1025
     13 N          -6.9566   -0.7837   -1.5431 N.ar    1  UNL1       -0.3058
     14 C          -7.5846   -0.3506   -0.4201 C.ar    1  UNL1        0.0201
     15 C          -8.6989    0.4132   -0.5024 C.ar    1  UNL1        0.0711
     16 C          -9.3837    0.8856    0.7542 C.3     1  UNL1        0.4188
     17 F          -8.9318    2.1697    1.0770 F       1  UNL1       -0.1658
     18 F         -10.7671    0.9163    0.5479 F       1  UNL1       -0.1658
     19 F          -9.0881    0.0095    1.8040 F       1  UNL1       -0.1658
     20 C          -9.2153    0.7648   -1.7574 C.ar    1  UNL1       -0.0436
     21 C          -8.5828    0.3291   -2.8846 C.ar    1  UNL1        0.0035
     22 C          -7.4250   -0.4582   -2.7629 C.ar    1  UNL1        0.2517
     23 O          -6.8491   -0.8548   -3.7634 O.2     1  UNL1       -0.2677
     24 C          -2.1126   -0.4111   -1.2315 C.3     1  UNL1        0.0258
     25 H           0.8172    1.8399    0.0041 H       1  UNL1        0.1449
     26 H          -0.8627    1.8171    0.0160 H       1  UNL1        0.1449
     27 H          -0.4474   -2.5299   -0.9109 H       1  UNL1        0.0273
     28 H          -0.3893   -2.5332    0.8678 H       1  UNL1        0.0273
     29 H          -2.0923   -4.1288    0.0538 H       1  UNL1        0.0281
     30 H          -2.8647   -2.7884    0.9353 H       1  UNL1        0.0281
     31 H          -2.6215   -3.0759   -2.0951 H       1  UNL1        0.0464
     32 H          -4.1147   -3.2008   -1.1297 H       1  UNL1        0.0464
     33 H          -5.6842   -2.2762   -2.2864 H       1  UNL1        0.0589
     34 H          -5.8040   -2.2006   -0.5121 H       1  UNL1        0.0589
     35 H          -7.1909   -0.6186    0.5492 H       1  UNL1        0.0816
     36 H         -10.1043    1.3737   -1.8309 H       1  UNL1        0.0625
     37 H          -8.9654    0.5896   -3.8603 H       1  UNL1        0.0672
     38 H          -2.4131    0.6353   -1.1780 H       1  UNL1        0.0472
     39 H          -1.5121   -0.5757   -2.1261 H       1  UNL1        0.0472
@<TRIPOS>BOND
     1     1     2   am
     2     1    25    1
     3     1    26    1
     4     2     3    2
     5     2     4    1
     6     4     5    1
     7     4    24    1
     8     4     6    1
     9     6     7    1
    10     6    27    1
    11     6    28    1
    12     7     8    1
    13     7    29    1
    14     7    30    1
    15     8     9    1
    16     8    31    1
    17     8    32    1
    18     9    10   am
    19     9    24    1
    20    10    11    2
    21    10    12    1
    22    12    13    1
    23    12    33    1
    24    12    34    1
    25    13    22   ar
    26    13    14   ar
    27    14    15   ar
    28    14    35    1
    29    15    16    1
    30    15    20   ar
    31    16    17    1
    32    16    18    1
    33    16    19    1
    34    20    21   ar
    35    20    36    1
    36    21    22   ar
    37    21    37    1
    38    22    23    2
    39    24    38    1
    40    24    39    1
