@<TRIPOS>MOLECULE
ZINC000001703578
 56 57 0 0 0
SMALL
GASTEIGER

@<TRIPOS>ATOM
      1 C          -0.2414    1.7506   -0.6487 C.3     1  UNL1       -0.0641
      2 C          -0.1409    0.2370   -0.4493 C.3     1  UNL1       -0.0414
      3 C          -1.5465   -0.3574   -0.3402 C.3     1  UNL1        0.0203
      4 N          -1.4504   -1.8067   -0.1492 N.3     1  UNL1       -0.1766
      5 C          -1.2652   -2.3577    1.1955 C.3     1  UNL1        0.0203
      6 C          -2.6266   -2.5059    1.8778 C.3     1  UNL1       -0.0414
      7 C          -2.4333   -3.0813    3.2822 C.3     1  UNL1       -0.0641
      8 S          -1.5509   -2.8222   -1.4535 S.O2    1  UNL1        0.0609
      9 O          -1.9768   -4.0809   -0.9501 O.2     1  UNL1       -0.1528
     10 O          -2.2539   -2.1106   -2.4628 O.2     1  UNL1       -0.1528
     11 C           0.0870   -3.0569   -2.0593 C.ar    1  UNL1        0.1056
     12 C           0.5975   -2.2007   -3.0176 C.ar    1  UNL1       -0.0336
     13 C           1.8808   -2.3823   -3.4948 C.ar    1  UNL1       -0.0385
     14 C           2.6587   -3.4258   -3.0108 C.ar    1  UNL1        0.0366
     15 N           3.9597   -3.6122   -3.4919 N.am    1  UNL1       -0.2512
     16 C           4.7049   -2.5477   -3.8495 C.2     1  UNL1        0.4048
     17 O           4.2853   -1.4225   -3.6643 O.2     1  UNL1       -0.2261
     18 O           5.9145   -2.7311   -4.4119 O.3     1  UNL1       -0.4469
     19 C           6.6618   -1.5392   -4.7716 C.3     1  UNL1        0.1047
     20 C           7.5339   -1.1083   -3.5907 C.3     1  UNL1       -0.0156
     21 C           8.3213    0.1476   -3.9697 C.3     1  UNL1       -0.0497
     22 C           9.2108   -0.1533   -5.1776 C.3     1  UNL1       -0.0528
     23 C           8.3387   -0.5842   -6.3585 C.3     1  UNL1       -0.0497
     24 C           7.5513   -1.8401   -5.9795 C.3     1  UNL1       -0.0156
     25 C           2.1433   -4.2836   -2.0481 C.ar    1  UNL1       -0.0385
     26 C           0.8611   -4.0935   -1.5712 C.ar    1  UNL1       -0.0336
     27 H           0.7600    2.1741   -0.7264 H       1  UNL1        0.0230
     28 H          -0.7966    1.9606   -1.5628 H       1  UNL1        0.0230
     29 H          -0.7590    2.1955    0.2012 H       1  UNL1        0.0230
     30 H           0.3767   -0.2079   -1.2991 H       1  UNL1        0.0275
     31 H           0.4143    0.0270    0.4649 H       1  UNL1        0.0275
     32 H          -2.0642    0.0875    0.5097 H       1  UNL1        0.0444
     33 H          -2.1018   -0.1474   -1.2543 H       1  UNL1        0.0444
     34 H          -0.7859   -3.3341    1.1253 H       1  UNL1        0.0444
     35 H          -0.6370   -1.6857    1.7802 H       1  UNL1        0.0444
     36 H          -3.1060   -1.5295    1.9481 H       1  UNL1        0.0275
     37 H          -3.2549   -3.1779    1.2931 H       1  UNL1        0.0275
     38 H          -3.4032   -3.1869    3.7683 H       1  UNL1        0.0230
     39 H          -1.9539   -4.0577    3.2120 H       1  UNL1        0.0230
     40 H          -1.8051   -2.4093    3.8669 H       1  UNL1        0.0230
     41 H          -0.0081   -1.3893   -3.3936 H       1  UNL1        0.0638
     42 H           2.2787   -1.7137   -4.2438 H       1  UNL1        0.0637
     43 H           4.3250   -4.5076   -3.5680 H       1  UNL1        0.1582
     44 H           5.9676   -0.7370   -5.0224 H       1  UNL1        0.0734
     45 H           6.9002   -0.8940   -2.7301 H       1  UNL1        0.0301
     46 H           8.2281   -1.9105   -3.3399 H       1  UNL1        0.0301
     47 H           7.6272    0.9497   -4.2204 H       1  UNL1        0.0266
     48 H           8.9427    0.4545   -3.1284 H       1  UNL1        0.0266
     49 H           9.7718    0.7414   -5.4476 H       1  UNL1        0.0265
     50 H           9.9050   -0.9555   -4.9269 H       1  UNL1        0.0265
     51 H           7.6445    0.2180   -6.6093 H       1  UNL1        0.0266
     52 H           8.9724   -0.7985   -7.2191 H       1  UNL1        0.0266
     53 H           8.2454   -2.6422   -5.7288 H       1  UNL1        0.0301
     54 H           6.9299   -2.1470   -6.8209 H       1  UNL1        0.0301
     55 H           2.7459   -5.0961   -1.6697 H       1  UNL1        0.0637
     56 H           0.4598   -4.7601   -0.8222 H       1  UNL1        0.0638
@<TRIPOS>BOND
     1     1     2    1
     2     1    27    1
     3     1    28    1
     4     1    29    1
     5     2     3    1
     6     2    30    1
     7     2    31    1
     8     3     4    1
     9     3    32    1
    10     3    33    1
    11     4     5    1
    12     8     4    1
    13     5     6    1
    14     5    34    1
    15     5    35    1
    16     6     7    1
    17     6    36    1
    18     6    37    1
    19     7    38    1
    20     7    39    1
    21     7    40    1
    22     8     9    2
    23     8    10    2
    24     8    11    1
    25    11    26   ar
    26    11    12   ar
    27    12    13   ar
    28    12    41    1
    29    13    14   ar
    30    13    42    1
    31    14    15    1
    32    14    25   ar
    33    15    16   am
    34    15    43    1
    35    16    17    2
    36    16    18    1
    37    18    19    1
    38    19    24    1
    39    19    20    1
    40    19    44    1
    41    20    21    1
    42    20    45    1
    43    20    46    1
    44    21    22    1
    45    21    47    1
    46    21    48    1
    47    22    23    1
    48    22    49    1
    49    22    50    1
    50    23    24    1
    51    23    51    1
    52    23    52    1
    53    24    53    1
    54    24    54    1
    55    25    26   ar
    56    25    55    1
    57    26    56    1
