@<TRIPOS>MOLECULE
ZINC000096025321
 36 37 0 0 0
SMALL
GASTEIGER

@<TRIPOS>ATOM
      1 C          -0.0225    1.8097    0.0120 C.3     1  UNL1        0.0548
      2 S           0.0021   -0.0041    0.0020 S.O2    1  UNL1       -0.0297
      3 O           0.8010   -0.4520    1.0884 O.2     1  UNL1       -0.1743
      4 O          -1.3336   -0.4743   -0.1172 O.2     1  UNL1       -0.1743
      5 C           0.8798   -0.3584   -1.5454 C.3     1  UNL1        0.0920
      6 H           1.9058    0.0071   -1.5028 H       1  UNL1        0.0549
      7 C           0.1261    0.2408   -2.7621 C.3     1  UNL1       -0.0150
      8 C           0.5615   -0.6764   -3.9243 C.3     1  UNL1        0.0223
      9 N           1.0050   -1.9479   -3.3343 N.3     1  UNL1       -0.1747
     10 S           1.5915   -3.2490   -4.1743 S.O2    1  UNL1        0.0609
     11 O           1.3755   -4.3878   -3.3522 O.2     1  UNL1       -0.1528
     12 O           1.0815   -3.1365   -5.4958 O.2     1  UNL1       -0.1528
     13 C           3.3377   -3.0472   -4.2959 C.ar    1  UNL1        0.1055
     14 C           3.8815   -2.3638   -5.3675 C.ar    1  UNL1       -0.0348
     15 C           5.2514   -2.2054   -5.4629 C.ar    1  UNL1       -0.0483
     16 C           6.0775   -2.7301   -4.4866 C.ar    1  UNL1        0.0549
     17 C           7.5710   -2.5579   -4.5909 C.3     1  UNL1        0.4174
     18 F           7.9502   -1.3755   -3.9463 F       1  UNL1       -0.1659
     19 F           8.2093   -3.6451   -3.9844 F       1  UNL1       -0.1659
     20 F           7.9399   -2.4931   -5.9389 F       1  UNL1       -0.1659
     21 C           5.5336   -3.4123   -3.4144 C.ar    1  UNL1       -0.0483
     22 C           4.1635   -3.5673   -3.3169 C.ar    1  UNL1       -0.0348
     23 C           0.8429   -1.8726   -1.8705 C.3     1  UNL1        0.0427
     24 H           1.0001    2.1870    0.0043 H       1  UNL1        0.0464
     25 H          -0.5497    2.1708   -0.8711 H       1  UNL1        0.0464
     26 H          -0.5327    2.1613    0.9088 H       1  UNL1        0.0464
     27 H          -0.9522    0.1877   -2.6121 H       1  UNL1        0.0297
     28 H           0.4412    1.2685   -2.9430 H       1  UNL1        0.0297
     29 H          -0.2808   -0.8520   -4.5935 H       1  UNL1        0.0444
     30 H           1.3832   -0.2155   -4.4725 H       1  UNL1        0.0444
     31 H           3.2360   -1.9539   -6.1302 H       1  UNL1        0.0637
     32 H           5.6763   -1.6721   -6.3004 H       1  UNL1        0.0624
     33 H           6.1790   -3.8219   -2.6514 H       1  UNL1        0.0624
     34 H           3.7385   -4.1003   -2.4792 H       1  UNL1        0.0637
     35 H           1.6626   -2.3890   -1.3710 H       1  UNL1        0.0463
     36 H          -0.1141   -2.3007   -1.5723 H       1  UNL1        0.0463
@<TRIPOS>BOND
     1     1     2    1
     2     1    24    1
     3     1    25    1
     4     1    26    1
     5     2     3    2
     6     2     4    2
     7     2     5    1
     8     5     6    1
     9     5    23    1
    10     5     7    1
    11     7     8    1
    12     7    27    1
    13     7    28    1
    14     8     9    1
    15     8    29    1
    16     8    30    1
    17    10     9    1
    18     9    23    1
    19    10    11    2
    20    10    12    2
    21    10    13    1
    22    13    22   ar
    23    13    14   ar
    24    14    15   ar
    25    14    31    1
    26    15    16   ar
    27    15    32    1
    28    16    17    1
    29    16    21   ar
    30    17    18    1
    31    17    19    1
    32    17    20    1
    33    21    22   ar
    34    21    33    1
    35    22    34    1
    36    23    35    1
    37    23    36    1
