@<TRIPOS>MOLECULE
ZINC000032833835
 49 50 0 0 0
SMALL
GASTEIGER

@<TRIPOS>ATOM
      1 C          -0.0187    1.5258    0.0104 C.3     1  UNL1       -0.0507
      2 C           0.0021   -0.0041    0.0020 C.3     1  UNL1        0.0177
      3 N          -1.3723   -0.5112    0.0124 N.3     1  UNL1       -0.1771
      4 C          -2.1099   -0.6542   -1.2453 C.3     1  UNL1        0.0177
      5 C          -1.7727   -2.0031   -1.8836 C.3     1  UNL1       -0.0507
      6 S          -2.0922   -0.9227    1.4458 S.O2    1  UNL1        0.0608
      7 O          -3.1196   -1.8512    1.1269 O.2     1  UNL1       -0.1528
      8 O          -1.0393   -1.2108    2.3555 O.2     1  UNL1       -0.1528
      9 C          -2.8978    0.5199    2.0580 C.ar    1  UNL1        0.1056
     10 C          -2.2139    1.3946    2.8822 C.ar    1  UNL1       -0.0335
     11 C          -2.8423    2.5262    3.3638 C.ar    1  UNL1       -0.0354
     12 C          -4.1628    2.7852    3.0193 C.ar    1  UNL1        0.0744
     13 N          -4.8013    3.9290    3.5041 N.pl3   1  UNL1       -0.0978
     14 S          -6.3756    4.2360    3.0923 S.O2    1  UNL1        0.0916
     15 O          -6.3818    4.4941    1.6950 O.2     1  UNL1       -0.1483
     16 O          -7.1553    3.2135    3.6972 O.2     1  UNL1       -0.1483
     17 C          -6.8360    5.7439    3.8789 C.ar    1  UNL1        0.1106
     18 C          -7.3818    5.7212    5.1491 C.ar    1  UNL1       -0.0316
     19 C          -7.7435    6.9021    5.7679 C.ar    1  UNL1       -0.0181
     20 C          -7.5584    8.1116    5.1141 C.ar    1  UNL1        0.1214
     21 O          -7.9130    9.2747    5.7209 O.3     1  UNL1       -0.4806
     22 C          -7.6937   10.4818    4.9883 C.3     1  UNL1        0.1900
     23 C          -8.1439   11.6594    5.8140 C.2     1  UNL1        0.3927
     24 O          -8.6094   11.4813    6.9267 O.co2   1  UNL1       -0.2425
     25 O          -8.0426   12.7901    5.3693 O.co2   1  UNL1       -0.2425
     26 C          -7.0101    8.1317    3.8398 C.ar    1  UNL1       -0.0181
     27 C          -6.6455    6.9484    3.2272 C.ar    1  UNL1       -0.0316
     28 C          -4.8469    1.9044    2.1911 C.ar    1  UNL1       -0.0354
     29 C          -4.2107    0.7776    1.7085 C.ar    1  UNL1       -0.0335
     30 H           1.0039    1.9031    0.0027 H       1  UNL1        0.0243
     31 H          -0.5459    1.8868   -0.8726 H       1  UNL1        0.0243
     32 H          -0.5289    1.8773    0.9072 H       1  UNL1        0.0243
     33 H           0.5123   -0.3556   -0.8948 H       1  UNL1        0.0441
     34 H           0.5293   -0.3651    0.8851 H       1  UNL1        0.0441
     35 H          -3.1804   -0.6037   -1.0465 H       1  UNL1        0.0441
     36 H          -1.8283    0.1500   -1.9251 H       1  UNL1        0.0441
     37 H          -2.0544   -2.8073   -1.2038 H       1  UNL1        0.0243
     38 H          -2.3215   -2.1096   -2.8194 H       1  UNL1        0.0243
     39 H          -0.7022   -2.0536   -2.0825 H       1  UNL1        0.0243
     40 H          -1.1873    1.1925    3.1499 H       1  UNL1        0.0638
     41 H          -2.3077    3.2088    4.0077 H       1  UNL1        0.0638
     42 H          -7.5257    4.7794    5.6577 H       1  UNL1        0.0638
     43 H          -8.1705    6.8837    6.7598 H       1  UNL1        0.0655
     44 H          -6.6322   10.5815    4.7617 H       1  UNL1        0.0817
     45 H          -8.2623   10.4512    4.0589 H       1  UNL1        0.0817
     46 H          -6.8652    9.0720    3.3286 H       1  UNL1        0.0655
     47 H          -6.2184    6.9636    2.2354 H       1  UNL1        0.0638
     48 H          -5.8738    2.1027    1.9217 H       1  UNL1        0.0638
     49 H          -4.7419    0.0924    1.0646 H       1  UNL1        0.0638
@<TRIPOS>BOND
     1     1     2    1
     2     1    30    1
     3     1    31    1
     4     1    32    1
     5     2     3    1
     6     2    33    1
     7     2    34    1
     8     3     4    1
     9     6     3    1
    10     4     5    1
    11     4    35    1
    12     4    36    1
    13     5    37    1
    14     5    38    1
    15     5    39    1
    16     6     7    2
    17     6     8    2
    18     6     9    1
    19     9    29   ar
    20     9    10   ar
    21    10    11   ar
    22    10    40    1
    23    11    12   ar
    24    11    41    1
    25    12    13    1
    26    12    28   ar
    27    14    13    1
    28    14    15    2
    29    14    16    2
    30    14    17    1
    31    17    27   ar
    32    17    18   ar
    33    18    19   ar
    34    18    42    1
    35    19    20   ar
    36    19    43    1
    37    20    21    1
    38    20    26   ar
    39    21    22    1
    40    22    23    1
    41    22    44    1
    42    22    45    1
    43    23    24   ar
    44    23    25   ar
    45    26    27   ar
    46    26    46    1
    47    27    47    1
    48    28    29   ar
    49    28    48    1
    50    29    49    1
