@<TRIPOS>MOLECULE
ZINC000028207365
 53 54 0 0 0
SMALL
GASTEIGER

@<TRIPOS>ATOM
      1 C          -0.0178    1.4608    0.0101 C.3     1  UNL1        0.0086
      2 N           0.0021   -0.0041    0.0020 N.3     1  UNL1       -0.1827
      3 C           0.0241   -0.7433    1.2666 C.3     1  UNL1        0.0086
      4 S          -0.0004   -0.8243   -1.4366 S.O2    1  UNL1        0.0604
      5 O          -0.5247   -2.1160   -1.1611 O.2     1  UNL1       -0.1529
      6 O          -0.5660    0.0551   -2.3989 O.2     1  UNL1       -0.1529
      7 C           1.6816   -1.0597   -1.9056 C.ar    1  UNL1        0.1057
      8 C           2.3224   -0.1085   -2.6779 C.ar    1  UNL1       -0.0319
      9 C           3.6411   -0.2907   -3.0469 C.ar    1  UNL1       -0.0181
     10 C           4.3226   -1.4291   -2.6417 C.ar    1  UNL1        0.1213
     11 O           5.6201   -1.6104   -3.0031 O.3     1  UNL1       -0.4828
     12 C           6.2587   -2.8058   -2.5500 C.3     1  UNL1        0.1651
     13 C           7.6821   -2.8332   -3.0443 C.2     1  UNL1        0.2509
     14 O           8.1077   -1.9191   -3.7182 O.2     1  UNL1       -0.2721
     15 N           8.4821   -3.8735   -2.7374 N.am    1  UNL1       -0.3097
     16 C           9.8658   -3.9002   -3.2179 C.3     1  UNL1        0.0232
     17 C          10.7565   -3.1181   -2.2508 C.3     1  UNL1       -0.0345
     18 C          12.2232   -3.4667   -2.5131 C.3     1  UNL1       -0.0514
     19 C          12.6979   -2.7535   -3.7808 C.3     1  UNL1       -0.0530
     20 C          12.1395   -3.4731   -5.0100 C.3     1  UNL1       -0.0531
     21 C          12.2901   -4.9847   -4.8292 C.3     1  UNL1       -0.0530
     22 C          10.9059   -5.6234   -4.6981 C.3     1  UNL1       -0.0514
     23 C          10.3493   -5.3493   -3.2995 C.3     1  UNL1       -0.0345
     24 C           3.6776   -2.3818   -1.8665 C.ar    1  UNL1       -0.0181
     25 C           2.3603   -2.1926   -1.4960 C.ar    1  UNL1       -0.0319
     26 H           1.0048    1.8381    0.0023 H       1  UNL1        0.0408
     27 H          -0.5450    1.8219   -0.8730 H       1  UNL1        0.0408
     28 H          -0.5280    1.8123    0.9069 H       1  UNL1        0.0408
     29 H          -0.9979   -0.9406    1.5900 H       1  UNL1        0.0408
     30 H           0.5496   -1.6879    1.1262 H       1  UNL1        0.0408
     31 H           0.5371   -0.1514    2.0246 H       1  UNL1        0.0408
     32 H           1.7914    0.7776   -2.9931 H       1  UNL1        0.0638
     33 H           4.1409    0.4522   -3.6507 H       1  UNL1        0.0655
     34 H           6.2520   -2.8307   -1.4603 H       1  UNL1        0.0795
     35 H           5.7231   -3.6729   -2.9365 H       1  UNL1        0.0795
     36 H           8.1417   -4.6046   -2.1984 H       1  UNL1        0.1491
     37 H           9.9157   -3.4445   -4.2068 H       1  UNL1        0.0498
     38 H          10.6047   -2.0491   -2.4006 H       1  UNL1        0.0283
     39 H          10.4983   -3.3815   -1.2251 H       1  UNL1        0.0283
     40 H          12.8300   -3.1455   -1.6665 H       1  UNL1        0.0266
     41 H          12.3228   -4.5443   -2.6435 H       1  UNL1        0.0266
     42 H          12.3445   -1.7224   -3.7716 H       1  UNL1        0.0265
     43 H          13.7873   -2.7639   -3.8173 H       1  UNL1        0.0265
     44 H          11.0848   -3.2247   -5.1284 H       1  UNL1        0.0265
     45 H          12.6888   -3.1568   -5.8968 H       1  UNL1        0.0265
     46 H          12.8036   -5.4047   -5.6941 H       1  UNL1        0.0265
     47 H          12.8703   -5.1869   -3.9289 H       1  UNL1        0.0265
     48 H          10.2367   -5.1972   -5.4455 H       1  UNL1        0.0266
     49 H          10.9859   -6.6994   -4.8530 H       1  UNL1        0.0266
     50 H          11.1317   -5.5135   -2.5585 H       1  UNL1        0.0283
     51 H           9.5150   -6.0224   -3.1022 H       1  UNL1        0.0283
     52 H           4.2059   -3.2690   -1.5500 H       1  UNL1        0.0655
     53 H           1.8578   -2.9338   -0.8923 H       1  UNL1        0.0638
@<TRIPOS>BOND
     1     1     2    1
     2     1    26    1
     3     1    27    1
     4     1    28    1
     5     2     3    1
     6     4     2    1
     7     3    29    1
     8     3    30    1
     9     3    31    1
    10     4     5    2
    11     4     6    2
    12     4     7    1
    13     7    25   ar
    14     7     8   ar
    15     8     9   ar
    16     8    32    1
    17     9    10   ar
    18     9    33    1
    19    10    11    1
    20    10    24   ar
    21    11    12    1
    22    12    13    1
    23    12    34    1
    24    12    35    1
    25    13    14    2
    26    13    15   am
    27    15    16    1
    28    15    36    1
    29    16    23    1
    30    16    17    1
    31    16    37    1
    32    17    18    1
    33    17    38    1
    34    17    39    1
    35    18    19    1
    36    18    40    1
    37    18    41    1
    38    19    20    1
    39    19    42    1
    40    19    43    1
    41    20    21    1
    42    20    44    1
    43    20    45    1
    44    21    22    1
    45    21    46    1
    46    21    47    1
    47    22    23    1
    48    22    48    1
    49    22    49    1
    50    23    50    1
    51    23    51    1
    52    24    25   ar
    53    24    52    1
    54    25    53    1
