@<TRIPOS>MOLECULE
ZINC000012438637
 41 42 0 0 0
SMALL
GASTEIGER

@<TRIPOS>ATOM
      1 C          -0.0173    1.4248    0.0099 C.3     1  UNL1        0.0371
      2 O           0.0021   -0.0041    0.0020 O.3     1  UNL1       -0.3738
      3 C           0.6518   -0.5703   -1.1379 C.3     1  UNL1        0.1235
      4 C           0.6137   -2.0738   -1.0425 C.2     1  UNL1        0.2413
      5 O           0.0824   -2.6078   -0.0920 O.2     1  UNL1       -0.2731
      6 N           1.1699   -2.8249   -2.0135 N.am    1  UNL1       -0.2989
      7 C           1.8224   -2.1924   -3.1680 C.3     1  UNL1        0.0148
      8 C           3.2429   -2.7510   -3.2987 C.3     1  UNL1       -0.0365
      9 C           3.1816   -4.2784   -3.3703 C.3     1  UNL1       -0.0403
     10 C           2.5635   -4.8268   -2.0821 C.3     1  UNL1        0.0379
     11 H           3.1600   -4.5070   -1.2276 H       1  UNL1        0.0396
     12 C           2.5339   -6.3324   -2.1396 C.2     1  UNL1        0.1677
     13 O           2.5208   -6.8980   -3.2121 O.2     1  UNL1       -0.2917
     14 C           2.5210   -7.1163   -0.8942 C.ar    1  UNL1        0.0178
     15 C           2.5304   -6.4675    0.3448 C.ar    1  UNL1       -0.0507
     16 C           2.5182   -7.2090    1.5072 C.ar    1  UNL1       -0.0495
     17 C           2.4973   -8.5917    1.4502 C.ar    1  UNL1        0.0548
     18 C           2.4841   -9.3944    2.7256 C.3     1  UNL1        0.4174
     19 F           1.1612   -9.6228    3.1192 F       1  UNL1       -0.1659
     20 F           3.1253  -10.6194    2.5122 F       1  UNL1       -0.1659
     21 F           3.1537   -8.6862    3.7292 F       1  UNL1       -0.1659
     22 C           2.4879   -9.2411    0.2280 C.ar    1  UNL1       -0.0495
     23 C           2.4936   -8.5137   -0.9434 C.ar    1  UNL1       -0.0507
     24 C           1.1407   -4.2918   -1.9346 C.3     1  UNL1        0.0246
     25 H           1.0053    1.8021    0.0021 H       1  UNL1        0.0524
     26 H          -0.5445    1.7859   -0.8732 H       1  UNL1        0.0524
     27 H          -0.5275    1.7763    0.9067 H       1  UNL1        0.0524
     28 H           0.1385   -0.2506   -2.0447 H       1  UNL1        0.0656
     29 H           1.6883   -0.2344   -1.1694 H       1  UNL1        0.0656
     30 H           1.2578   -2.4142   -4.0736 H       1  UNL1        0.0464
     31 H           1.8663   -1.1138   -3.0173 H       1  UNL1        0.0464
     32 H           3.7045   -2.3624   -4.2065 H       1  UNL1        0.0281
     33 H           3.8330   -2.4507   -2.4328 H       1  UNL1        0.0281
     34 H           2.5709   -4.5778   -4.2221 H       1  UNL1        0.0273
     35 H           4.1891   -4.6772   -3.4881 H       1  UNL1        0.0273
     36 H           2.5474   -5.3886    0.3909 H       1  UNL1        0.0625
     37 H           2.5254   -6.7095    2.4648 H       1  UNL1        0.0623
     38 H           2.4716  -10.3204    0.1917 H       1  UNL1        0.0623
     39 H           2.4862   -9.0218   -1.8963 H       1  UNL1        0.0625
     40 H           0.7327   -4.5991   -0.9717 H       1  UNL1        0.0471
     41 H           0.5180   -4.6828   -2.7392 H       1  UNL1        0.0471
@<TRIPOS>BOND
     1     1     2    1
     2     1    25    1
     3     1    26    1
     4     1    27    1
     5     2     3    1
     6     3     4    1
     7     3    28    1
     8     3    29    1
     9     4     5    2
    10     4     6   am
    11     6    24    1
    12     6     7    1
    13     7     8    1
    14     7    30    1
    15     7    31    1
    16     8     9    1
    17     8    32    1
    18     8    33    1
    19     9    10    1
    20     9    34    1
    21     9    35    1
    22    10    11    1
    23    10    12    1
    24    10    24    1
    25    12    13    2
    26    12    14    1
    27    14    23   ar
    28    14    15   ar
    29    15    16   ar
    30    15    36    1
    31    16    17   ar
    32    16    37    1
    33    17    18    1
    34    17    22   ar
    35    18    19    1
    36    18    20    1
    37    18    21    1
    38    22    23   ar
    39    22    38    1
    40    23    39    1
    41    24    40    1
    42    24    41    1
