@<TRIPOS>MOLECULE
ZINC000362127835
 34 35 0 0 0
SMALL
GASTEIGER

@<TRIPOS>ATOM
      1 C          -0.0173    1.4248    0.0099 C.3     1  UNL1        0.0369
      2 O           0.0021   -0.0041    0.0020 O.3     1  UNL1       -0.3784
      3 C           0.6518   -0.5703   -1.1379 C.3     1  UNL1        0.0738
      4 H           1.4280    0.0987   -1.5094 H       1  UNL1        0.0609
      5 C          -0.3775   -0.8903   -2.2538 C.3     1  UNL1       -0.0109
      6 C          -0.9169   -2.2677   -1.7938 C.3     1  UNL1        0.0230
      7 N           0.2549   -2.9628   -1.2307 N.3     1  UNL1       -0.1740
      8 S           0.4352   -4.6042   -1.1054 S.O2    1  UNL1        0.0609
      9 O           1.3744   -4.8263   -0.0624 O.2     1  UNL1       -0.1528
     10 O          -0.8756   -5.1527   -1.1008 O.2     1  UNL1       -0.1528
     11 C           1.2017   -5.1596   -2.5916 C.ar    1  UNL1        0.1055
     12 C           0.4249   -5.5284   -3.6739 C.ar    1  UNL1       -0.0348
     13 C           1.0262   -5.9642   -4.8398 C.ar    1  UNL1       -0.0483
     14 C           2.4044   -6.0306   -4.9237 C.ar    1  UNL1        0.0549
     15 C           3.0599   -6.5061   -6.1946 C.3     1  UNL1        0.4174
     16 F           3.2954   -5.4128   -7.0351 F       1  UNL1       -0.1659
     17 F           4.2746   -7.1288   -5.8880 F       1  UNL1       -0.1659
     18 F           2.2183   -7.4181   -6.8404 F       1  UNL1       -0.1659
     19 C           3.1813   -5.6605   -3.8419 C.ar    1  UNL1       -0.0483
     20 C           2.5801   -5.2211   -2.6772 C.ar    1  UNL1       -0.0348
     21 C           1.2415   -1.9554   -0.7982 C.3     1  UNL1        0.0468
     22 H           1.0053    1.8021    0.0021 H       1  UNL1        0.0524
     23 H          -0.5445    1.7859   -0.8732 H       1  UNL1        0.0524
     24 H          -0.5275    1.7763    0.9067 H       1  UNL1        0.0524
     25 H          -1.1739   -0.1464   -2.2757 H       1  UNL1        0.0303
     26 H           0.1106   -0.9665   -3.2254 H       1  UNL1        0.0303
     27 H          -1.6845   -2.1389   -1.0308 H       1  UNL1        0.0445
     28 H          -1.3147   -2.8223   -2.6436 H       1  UNL1        0.0445
     29 H          -0.6519   -5.4765   -3.6084 H       1  UNL1        0.0637
     30 H           0.4192   -6.2530   -5.6851 H       1  UNL1        0.0624
     31 H           4.2581   -5.7120   -3.9075 H       1  UNL1        0.0624
     32 H           3.1870   -4.9319   -1.8320 H       1  UNL1        0.0637
     33 H           2.1801   -2.1026   -1.3323 H       1  UNL1        0.0469
     34 H           1.4072   -2.0362    0.2761 H       1  UNL1        0.0469
@<TRIPOS>BOND
     1     1     2    1
     2     1    22    1
     3     1    23    1
     4     1    24    1
     5     2     3    1
     6     3     4    1
     7     3    21    1
     8     3     5    1
     9     5     6    1
    10     5    25    1
    11     5    26    1
    12     6     7    1
    13     6    27    1
    14     6    28    1
    15     8     7    1
    16     7    21    1
    17     8     9    2
    18     8    10    2
    19     8    11    1
    20    11    20   ar
    21    11    12   ar
    22    12    13   ar
    23    12    29    1
    24    13    14   ar
    25    13    30    1
    26    14    15    1
    27    14    19   ar
    28    15    16    1
    29    15    17    1
    30    15    18    1
    31    19    20   ar
    32    19    31    1
    33    20    32    1
    34    21    33    1
    35    21    34    1
