@<TRIPOS>MOLECULE
UNL
   32    35     1     0     0
SMALL
gas


@<TRIPOS>ATOM
      1 C           19.7320     0.2620    52.0400 c2         1 UNL       0.177529
      2 C1          20.0150    -0.4090    53.2440 c1         1 UNL      -0.052854
      3 C2          21.3080    -0.6190    53.6980 c2         1 UNL       0.137730
      4 N           21.4910    -1.2720    54.8570 n2         1 UNL      -0.177342
      5 C3          22.7520    -1.4390    55.2680 c1         1 UNL       0.102255
      6 N1          23.8380    -0.9920    54.6410 n2         1 UNL      -0.173495
      7 C4          23.6410    -0.3350    53.4780 c2         1 UNL       0.140553
      8 C5          22.3600    -0.1270    52.9220 c2         1 UNL       0.092079
      9 C6          22.0830     0.4830    51.6520 c1         1 UNL      -0.068758
     10 C7          20.7710     0.6490    51.1740 c2         1 UNL       0.176150
     11 C8          17.5760    -0.6830    52.2210 c1         1 UNL       0.091209
     12 O           18.3900     0.4030    51.7850 os         1 UNL      -0.246775
     13 N2          24.7760     0.2180    52.8250 n3         1 UNL      -0.227154
     14 H           24.6130     1.2110    52.6920 hn         1 UNL       0.137121
     15 C9          26.1290    -0.0750    53.1220 c2         1 UNL       0.116521
     16 C10         26.7010    -1.3090    52.7780 c1         1 UNL      -0.038041
     17 C11         28.0600    -1.5600    52.9820 c1         1 UNL      -0.026843
     18 C12         28.8670    -0.5660    53.5140 c2         1 UNL       0.199614
     19 F           30.1690    -0.8290    53.7020 f          1 UNL      -0.194700
     20 C13         28.3280     0.6760    53.8320 c2         1 UNL       0.129217
     21 Cl          29.3260     1.9230    54.4820 cl         1 UNL      -0.071030
     22 C14         26.9660     0.9260    53.6380 c1         1 UNL      -0.067410
     23 O1          20.4360     1.1220    49.9250 os         1 UNL      -0.247828
     24 C15         21.4690     1.3150    48.9420 c1         1 UNL       0.074382
     25 C16         21.7980     2.8090    48.6830 c1         1 UNL       0.021964
     26 C17         21.7500     3.9270    49.7740 c1         1 UNL       0.024104
     27 N3          22.9960     4.6710    50.0690 n3         1 UNL      -0.081938
     28 C18         24.2380     3.9620    49.6170 c1         1 UNL       0.040576
     29 C19         24.7700     2.8310    50.5290 c1         1 UNL       0.090019
     30 O2          24.8310     3.2220    51.9050 os         1 UNL      -0.207449
     31 C20         23.5680     3.7390    52.3360 c1         1 UNL       0.090019
     32 C21         23.1810     4.9700    51.5010 c1         1 UNL       0.040576
@<TRIPOS>BOND
     1     1     2 1   
     2     1    10 1   
     3     1    12 1   
     4     2     3 1   
     5     3     4 1   
     6     3     8 1   
     7     4     5 1   
     8     5     6 1   
     9     6     7 1   
    10     7     8 1   
    11     7    13 1   
    12     8     9 1   
    13     9    10 1   
    14    10    23 1   
    15    11    12 1   
    16    13    14 1   
    17    13    15 1   
    18    15    16 1   
    19    15    22 1   
    20    16    17 1   
    21    17    18 1   
    22    18    19 1   
    23    18    20 1   
    24    20    21 1   
    25    20    22 1   
    26    23    24 1   
    27    24    25 1   
    28    25    26 1   
    29    26    27 1   
    30    27    28 1   
    31    27    32 1   
    32    28    29 1   
    33    29    30 1   
    34    30    31 1   
    35    31    32 1   
@<TRIPOS>SUBSTRUCTURE
     1 UNL         1 TEMP              0 ****  ****    0 ROOT
